
---------- Begin Simulation Statistics ----------
simSeconds                                   0.077263                       # Number of seconds simulated (Second)
simTicks                                  77263317009                       # Number of ticks simulated (Tick)
finalTick                                 77263317009                       # Number of ticks from beginning of simulation (restored from checkpoints and never reset) (Tick)
simFreq                                  1000000000000                       # The number of ticks per simulated second ((Tick/Second))
hostSeconds                                   1226.86                       # Real time elapsed on the host (Second)
hostTickRate                                 62976591                       # The number of ticks simulated per host second (ticks/s) ((Tick/Second))
hostMemory                                     715096                       # Number of bytes of host memory used (Byte)
simInsts                                    249880361                       # Number of instructions simulated (Count)
simOps                                      249880575                       # Number of ops (including micro ops) simulated (Count)
hostInstRate                                   203675                       # Simulator instruction rate (inst/s) ((Count/Second))
hostOpRate                                     203675                       # Simulator op (including micro ops) rate (op/s) ((Count/Second))
system.clk_domain.clock                          1000                       # Clock period in ticks (Tick)
system.cpu0.numCycles                       231585049                       # Number of cpu cycles simulated (Cycle)
system.cpu0.numWorkItemsStarted                     0                       # Number of work items this cpu started (Count)
system.cpu0.numWorkItemsCompleted                   0                       # Number of work items this cpu completed (Count)
system.cpu0.instsAdded                      125191318                       # Number of instructions added to the IQ (excludes non-spec) (Count)
system.cpu0.nonSpecInstsAdded                     930                       # Number of non-speculative instructions added to the IQ (Count)
system.cpu0.instsIssued                     127678453                       # Number of instructions issued (Count)
system.cpu0.squashedInstsIssued                   241                       # Number of squashed instructions issued (Count)
system.cpu0.squashedInstsExamined              257013                       # Number of squashed instructions iterated over during squash; mainly for profiling (Count)
system.cpu0.squashedOperandsExamined           137864                       # Number of squashed operands that are examined and possibly removed from graph (Count)
system.cpu0.squashedNonSpecRemoved                280                       # Number of squashed non-spec instructions that were removed (Count)
system.cpu0.numIssuedDist::samples          231489845                       # Number of insts issued each cycle (Count)
system.cpu0.numIssuedDist::mean              0.551551                       # Number of insts issued each cycle (Count)
system.cpu0.numIssuedDist::stdev             0.975708                       # Number of insts issued each cycle (Count)
system.cpu0.numIssuedDist::underflows               0      0.00%      0.00% # Number of insts issued each cycle (Count)
system.cpu0.numIssuedDist::0                150365881     64.96%     64.96% # Number of insts issued each cycle (Count)
system.cpu0.numIssuedDist::1                 51934405     22.43%     87.39% # Number of insts issued each cycle (Count)
system.cpu0.numIssuedDist::2                 20649975      8.92%     96.31% # Number of insts issued each cycle (Count)
system.cpu0.numIssuedDist::3                  4748798      2.05%     98.36% # Number of insts issued each cycle (Count)
system.cpu0.numIssuedDist::4                  1258163      0.54%     98.91% # Number of insts issued each cycle (Count)
system.cpu0.numIssuedDist::5                   965437      0.42%     99.32% # Number of insts issued each cycle (Count)
system.cpu0.numIssuedDist::6                   977608      0.42%     99.75% # Number of insts issued each cycle (Count)
system.cpu0.numIssuedDist::7                   244405      0.11%     99.85% # Number of insts issued each cycle (Count)
system.cpu0.numIssuedDist::8                   345173      0.15%    100.00% # Number of insts issued each cycle (Count)
system.cpu0.numIssuedDist::overflows                0      0.00%    100.00% # Number of insts issued each cycle (Count)
system.cpu0.numIssuedDist::min_value                0                       # Number of insts issued each cycle (Count)
system.cpu0.numIssuedDist::max_value                8                       # Number of insts issued each cycle (Count)
system.cpu0.numIssuedDist::total            231489845                       # Number of insts issued each cycle (Count)
system.cpu0.statFuBusy::No_OpClass                  0      0.00%      0.00% # attempts to use FU when none available (Count)
system.cpu0.statFuBusy::IntAlu                 774718     68.61%     68.61% # attempts to use FU when none available (Count)
system.cpu0.statFuBusy::IntMult                     6      0.00%     68.61% # attempts to use FU when none available (Count)
system.cpu0.statFuBusy::IntDiv                      4      0.00%     68.61% # attempts to use FU when none available (Count)
system.cpu0.statFuBusy::FloatAdd                    0      0.00%     68.61% # attempts to use FU when none available (Count)
system.cpu0.statFuBusy::FloatCmp                    0      0.00%     68.61% # attempts to use FU when none available (Count)
system.cpu0.statFuBusy::FloatCvt                    0      0.00%     68.61% # attempts to use FU when none available (Count)
system.cpu0.statFuBusy::FloatMult                1027      0.09%     68.70% # attempts to use FU when none available (Count)
system.cpu0.statFuBusy::FloatMultAcc                0      0.00%     68.70% # attempts to use FU when none available (Count)
system.cpu0.statFuBusy::FloatDiv                    0      0.00%     68.70% # attempts to use FU when none available (Count)
system.cpu0.statFuBusy::FloatMisc                  10      0.00%     68.70% # attempts to use FU when none available (Count)
system.cpu0.statFuBusy::FloatSqrt                   0      0.00%     68.70% # attempts to use FU when none available (Count)
system.cpu0.statFuBusy::SimdAdd                     0      0.00%     68.70% # attempts to use FU when none available (Count)
system.cpu0.statFuBusy::SimdAddAcc                  0      0.00%     68.70% # attempts to use FU when none available (Count)
system.cpu0.statFuBusy::SimdAlu                     0      0.00%     68.70% # attempts to use FU when none available (Count)
system.cpu0.statFuBusy::SimdCmp                     0      0.00%     68.70% # attempts to use FU when none available (Count)
system.cpu0.statFuBusy::SimdCvt                     0      0.00%     68.70% # attempts to use FU when none available (Count)
system.cpu0.statFuBusy::SimdMisc                    0      0.00%     68.70% # attempts to use FU when none available (Count)
system.cpu0.statFuBusy::SimdMult                    0      0.00%     68.70% # attempts to use FU when none available (Count)
system.cpu0.statFuBusy::SimdMultAcc                 0      0.00%     68.70% # attempts to use FU when none available (Count)
system.cpu0.statFuBusy::SimdShift                   0      0.00%     68.70% # attempts to use FU when none available (Count)
system.cpu0.statFuBusy::SimdShiftAcc                0      0.00%     68.70% # attempts to use FU when none available (Count)
system.cpu0.statFuBusy::SimdDiv                     0      0.00%     68.70% # attempts to use FU when none available (Count)
system.cpu0.statFuBusy::SimdSqrt                    0      0.00%     68.70% # attempts to use FU when none available (Count)
system.cpu0.statFuBusy::SimdFloatAdd                0      0.00%     68.70% # attempts to use FU when none available (Count)
system.cpu0.statFuBusy::SimdFloatAlu                0      0.00%     68.70% # attempts to use FU when none available (Count)
system.cpu0.statFuBusy::SimdFloatCmp                0      0.00%     68.70% # attempts to use FU when none available (Count)
system.cpu0.statFuBusy::SimdFloatCvt                0      0.00%     68.70% # attempts to use FU when none available (Count)
system.cpu0.statFuBusy::SimdFloatDiv                0      0.00%     68.70% # attempts to use FU when none available (Count)
system.cpu0.statFuBusy::SimdFloatMisc               0      0.00%     68.70% # attempts to use FU when none available (Count)
system.cpu0.statFuBusy::SimdFloatMult               0      0.00%     68.70% # attempts to use FU when none available (Count)
system.cpu0.statFuBusy::SimdFloatMultAcc            0      0.00%     68.70% # attempts to use FU when none available (Count)
system.cpu0.statFuBusy::SimdFloatSqrt               0      0.00%     68.70% # attempts to use FU when none available (Count)
system.cpu0.statFuBusy::SimdReduceAdd               0      0.00%     68.70% # attempts to use FU when none available (Count)
system.cpu0.statFuBusy::SimdReduceAlu               0      0.00%     68.70% # attempts to use FU when none available (Count)
system.cpu0.statFuBusy::SimdReduceCmp               0      0.00%     68.70% # attempts to use FU when none available (Count)
system.cpu0.statFuBusy::SimdFloatReduceAdd            0      0.00%     68.70% # attempts to use FU when none available (Count)
system.cpu0.statFuBusy::SimdFloatReduceCmp            0      0.00%     68.70% # attempts to use FU when none available (Count)
system.cpu0.statFuBusy::SimdAes                     0      0.00%     68.70% # attempts to use FU when none available (Count)
system.cpu0.statFuBusy::SimdAesMix                  0      0.00%     68.70% # attempts to use FU when none available (Count)
system.cpu0.statFuBusy::SimdSha1Hash                0      0.00%     68.70% # attempts to use FU when none available (Count)
system.cpu0.statFuBusy::SimdSha1Hash2               0      0.00%     68.70% # attempts to use FU when none available (Count)
system.cpu0.statFuBusy::SimdSha256Hash              0      0.00%     68.70% # attempts to use FU when none available (Count)
system.cpu0.statFuBusy::SimdSha256Hash2             0      0.00%     68.70% # attempts to use FU when none available (Count)
system.cpu0.statFuBusy::SimdShaSigma2               0      0.00%     68.70% # attempts to use FU when none available (Count)
system.cpu0.statFuBusy::SimdShaSigma3               0      0.00%     68.70% # attempts to use FU when none available (Count)
system.cpu0.statFuBusy::SimdPredAlu                 0      0.00%     68.70% # attempts to use FU when none available (Count)
system.cpu0.statFuBusy::MemRead                352038     31.17%     99.87% # attempts to use FU when none available (Count)
system.cpu0.statFuBusy::MemWrite                 1421      0.13%    100.00% # attempts to use FU when none available (Count)
system.cpu0.statFuBusy::FloatMemRead                4      0.00%    100.00% # attempts to use FU when none available (Count)
system.cpu0.statFuBusy::FloatMemWrite               9      0.00%    100.00% # attempts to use FU when none available (Count)
system.cpu0.statFuBusy::IprAccess                   0      0.00%    100.00% # attempts to use FU when none available (Count)
system.cpu0.statFuBusy::InstPrefetch                0      0.00%    100.00% # attempts to use FU when none available (Count)
system.cpu0.statIssuedInstType_0::No_OpClass          398      0.00%      0.00% # Number of instructions issued per FU type, per thread (Count)
system.cpu0.statIssuedInstType_0::IntAlu     34778636     27.24%     27.24% # Number of instructions issued per FU type, per thread (Count)
system.cpu0.statIssuedInstType_0::IntMult           72      0.00%     27.24% # Number of instructions issued per FU type, per thread (Count)
system.cpu0.statIssuedInstType_0::IntDiv          142      0.00%     27.24% # Number of instructions issued per FU type, per thread (Count)
system.cpu0.statIssuedInstType_0::FloatAdd     14161932     11.09%     38.33% # Number of instructions issued per FU type, per thread (Count)
system.cpu0.statIssuedInstType_0::FloatCmp           16      0.00%     38.33% # Number of instructions issued per FU type, per thread (Count)
system.cpu0.statIssuedInstType_0::FloatCvt     17838103     13.97%     52.30% # Number of instructions issued per FU type, per thread (Count)
system.cpu0.statIssuedInstType_0::FloatMult     28325899     22.19%     74.49% # Number of instructions issued per FU type, per thread (Count)
system.cpu0.statIssuedInstType_0::FloatMultAcc            0      0.00%     74.49% # Number of instructions issued per FU type, per thread (Count)
system.cpu0.statIssuedInstType_0::FloatDiv            0      0.00%     74.49% # Number of instructions issued per FU type, per thread (Count)
system.cpu0.statIssuedInstType_0::FloatMisc      3148824      2.47%     76.95% # Number of instructions issued per FU type, per thread (Count)
system.cpu0.statIssuedInstType_0::FloatSqrt            0      0.00%     76.95% # Number of instructions issued per FU type, per thread (Count)
system.cpu0.statIssuedInstType_0::SimdAdd            0      0.00%     76.95% # Number of instructions issued per FU type, per thread (Count)
system.cpu0.statIssuedInstType_0::SimdAddAcc            0      0.00%     76.95% # Number of instructions issued per FU type, per thread (Count)
system.cpu0.statIssuedInstType_0::SimdAlu            0      0.00%     76.95% # Number of instructions issued per FU type, per thread (Count)
system.cpu0.statIssuedInstType_0::SimdCmp            0      0.00%     76.95% # Number of instructions issued per FU type, per thread (Count)
system.cpu0.statIssuedInstType_0::SimdCvt            0      0.00%     76.95% # Number of instructions issued per FU type, per thread (Count)
system.cpu0.statIssuedInstType_0::SimdMisc            0      0.00%     76.95% # Number of instructions issued per FU type, per thread (Count)
system.cpu0.statIssuedInstType_0::SimdMult            0      0.00%     76.95% # Number of instructions issued per FU type, per thread (Count)
system.cpu0.statIssuedInstType_0::SimdMultAcc            0      0.00%     76.95% # Number of instructions issued per FU type, per thread (Count)
system.cpu0.statIssuedInstType_0::SimdShift            0      0.00%     76.95% # Number of instructions issued per FU type, per thread (Count)
system.cpu0.statIssuedInstType_0::SimdShiftAcc            0      0.00%     76.95% # Number of instructions issued per FU type, per thread (Count)
system.cpu0.statIssuedInstType_0::SimdDiv            0      0.00%     76.95% # Number of instructions issued per FU type, per thread (Count)
system.cpu0.statIssuedInstType_0::SimdSqrt            0      0.00%     76.95% # Number of instructions issued per FU type, per thread (Count)
system.cpu0.statIssuedInstType_0::SimdFloatAdd            0      0.00%     76.95% # Number of instructions issued per FU type, per thread (Count)
system.cpu0.statIssuedInstType_0::SimdFloatAlu            0      0.00%     76.95% # Number of instructions issued per FU type, per thread (Count)
system.cpu0.statIssuedInstType_0::SimdFloatCmp            0      0.00%     76.95% # Number of instructions issued per FU type, per thread (Count)
system.cpu0.statIssuedInstType_0::SimdFloatCvt            0      0.00%     76.95% # Number of instructions issued per FU type, per thread (Count)
system.cpu0.statIssuedInstType_0::SimdFloatDiv            0      0.00%     76.95% # Number of instructions issued per FU type, per thread (Count)
system.cpu0.statIssuedInstType_0::SimdFloatMisc            0      0.00%     76.95% # Number of instructions issued per FU type, per thread (Count)
system.cpu0.statIssuedInstType_0::SimdFloatMult            0      0.00%     76.95% # Number of instructions issued per FU type, per thread (Count)
system.cpu0.statIssuedInstType_0::SimdFloatMultAcc            0      0.00%     76.95% # Number of instructions issued per FU type, per thread (Count)
system.cpu0.statIssuedInstType_0::SimdFloatSqrt            0      0.00%     76.95% # Number of instructions issued per FU type, per thread (Count)
system.cpu0.statIssuedInstType_0::SimdReduceAdd            0      0.00%     76.95% # Number of instructions issued per FU type, per thread (Count)
system.cpu0.statIssuedInstType_0::SimdReduceAlu            0      0.00%     76.95% # Number of instructions issued per FU type, per thread (Count)
system.cpu0.statIssuedInstType_0::SimdReduceCmp            0      0.00%     76.95% # Number of instructions issued per FU type, per thread (Count)
system.cpu0.statIssuedInstType_0::SimdFloatReduceAdd            0      0.00%     76.95% # Number of instructions issued per FU type, per thread (Count)
system.cpu0.statIssuedInstType_0::SimdFloatReduceCmp            0      0.00%     76.95% # Number of instructions issued per FU type, per thread (Count)
system.cpu0.statIssuedInstType_0::SimdAes            0      0.00%     76.95% # Number of instructions issued per FU type, per thread (Count)
system.cpu0.statIssuedInstType_0::SimdAesMix            0      0.00%     76.95% # Number of instructions issued per FU type, per thread (Count)
system.cpu0.statIssuedInstType_0::SimdSha1Hash            0      0.00%     76.95% # Number of instructions issued per FU type, per thread (Count)
system.cpu0.statIssuedInstType_0::SimdSha1Hash2            0      0.00%     76.95% # Number of instructions issued per FU type, per thread (Count)
system.cpu0.statIssuedInstType_0::SimdSha256Hash            0      0.00%     76.95% # Number of instructions issued per FU type, per thread (Count)
system.cpu0.statIssuedInstType_0::SimdSha256Hash2            0      0.00%     76.95% # Number of instructions issued per FU type, per thread (Count)
system.cpu0.statIssuedInstType_0::SimdShaSigma2            0      0.00%     76.95% # Number of instructions issued per FU type, per thread (Count)
system.cpu0.statIssuedInstType_0::SimdShaSigma3            0      0.00%     76.95% # Number of instructions issued per FU type, per thread (Count)
system.cpu0.statIssuedInstType_0::SimdPredAlu            0      0.00%     76.95% # Number of instructions issued per FU type, per thread (Count)
system.cpu0.statIssuedInstType_0::MemRead     15736285     12.32%     89.28% # Number of instructions issued per FU type, per thread (Count)
system.cpu0.statIssuedInstType_0::MemWrite      5285138      4.14%     93.42% # Number of instructions issued per FU type, per thread (Count)
system.cpu0.statIssuedInstType_0::FloatMemRead      8402973      6.58%    100.00% # Number of instructions issued per FU type, per thread (Count)
system.cpu0.statIssuedInstType_0::FloatMemWrite           35      0.00%    100.00% # Number of instructions issued per FU type, per thread (Count)
system.cpu0.statIssuedInstType_0::IprAccess            0      0.00%    100.00% # Number of instructions issued per FU type, per thread (Count)
system.cpu0.statIssuedInstType_0::InstPrefetch            0      0.00%    100.00% # Number of instructions issued per FU type, per thread (Count)
system.cpu0.statIssuedInstType_0::total     127678453                       # Number of instructions issued per FU type, per thread (Count)
system.cpu0.issueRate                        0.551324                       # Inst issue rate ((Count/Cycle))
system.cpu0.fuBusy                            1129237                       # FU busy when requested (Count)
system.cpu0.fuBusyRate                       0.008844                       # FU busy rate (busy events/executed inst) ((Count/Count))
system.cpu0.intInstQueueReads               344219615                       # Number of integer instruction queue reads (Count)
system.cpu0.intInstQueueWrites               53396594                       # Number of integer instruction queue writes (Count)
system.cpu0.intInstQueueWakeupAccesses       53231855                       # Number of integer instruction queue wakeup accesses (Count)
system.cpu0.fpInstQueueReads                143756614                       # Number of floating instruction queue reads (Count)
system.cpu0.fpInstQueueWrites                72052768                       # Number of floating instruction queue writes (Count)
system.cpu0.fpInstQueueWakeupAccesses        71876747                       # Number of floating instruction queue wakeup accesses (Count)
system.cpu0.vecInstQueueReads                       0                       # Number of vector instruction queue reads (Count)
system.cpu0.vecInstQueueWrites                      0                       # Number of vector instruction queue writes (Count)
system.cpu0.vecInstQueueWakeupAccesses              0                       # Number of vector instruction queue wakeup accesses (Count)
system.cpu0.intAluAccesses                   56928460                       # Number of integer alu accesses (Count)
system.cpu0.fpAluAccesses                    71878832                       # Number of floating point alu accesses (Count)
system.cpu0.vecAluAccesses                          0                       # Number of vector alu accesses (Count)
system.cpu0.numInsts                        127675471                       # Number of executed instructions (Count)
system.cpu0.numLoadInsts                     24138488                       # Number of load instructions executed (Count)
system.cpu0.numSquashedInsts                     2982                       # Number of squashed instructions skipped in execute (Count)
system.cpu0.numSwp                                  0                       # Number of swp insts executed (Count)
system.cpu0.numNop                                  0                       # Number of nop insts executed (Count)
system.cpu0.numRefs                          29423568                       # Number of memory reference insts executed (Count)
system.cpu0.numBranches                       7906952                       # Number of branches executed (Count)
system.cpu0.numStoreInsts                     5285080                       # Number of stores executed (Count)
system.cpu0.numRate                          0.551311                       # Inst execution rate ((Count/Cycle))
system.cpu0.timesIdled                            555                       # Number of times that the entire CPU went into an idle state and unscheduled itself (Count)
system.cpu0.idleCycles                          95204                       # Total number of cycles that the CPU has spent unscheduled due to idling (Cycle)
system.cpu0.quiesceCycles                      436926                       # Total number of cycles that CPU has spent quiesced or waiting for an interrupt (Cycle)
system.cpu0.committedInsts                  124935094                       # Number of Instructions Simulated (Count)
system.cpu0.committedOps                    124935234                       # Number of Ops (including micro ops) Simulated (Count)
system.cpu0.cpi                              1.853643                       # CPI: Cycles Per Instruction ((Cycle/Count))
system.cpu0.totalCpi                         1.853643                       # CPI: Total CPI of All Threads ((Cycle/Count))
system.cpu0.ipc                              0.539478                       # IPC: Instructions Per Cycle ((Count/Cycle))
system.cpu0.totalIpc                         0.539478                       # IPC: Total IPC of All Threads ((Count/Cycle))
system.cpu0.intRegfileReads                  86840585                       # Number of integer regfile reads (Count)
system.cpu0.intRegfileWrites                 51066459                       # Number of integer regfile writes (Count)
system.cpu0.fpRegfileReads                  100192410                       # Number of floating regfile reads (Count)
system.cpu0.fpRegfileWrites                  62957653                       # Number of floating regfile writes (Count)
system.cpu0.miscRegfileReads                195675448                       # number of misc regfile reads (Count)
system.cpu0.miscRegfileWrites                63438940                       # number of misc regfile writes (Count)
system.cpu0.MemDepUnit__0.insertedLoads      21581517                       # Number of loads inserted to the mem dependence unit. (Count)
system.cpu0.MemDepUnit__0.insertedStores      5287437                       # Number of stores inserted to the mem dependence unit. (Count)
system.cpu0.MemDepUnit__0.conflictingLoads      4719443                       # Number of conflicting loads. (Count)
system.cpu0.MemDepUnit__0.conflictingStores      3146168                       # Number of conflicting stores. (Count)
system.cpu0.MemDepUnit__1.insertedLoads             0                       # Number of loads inserted to the mem dependence unit. (Count)
system.cpu0.MemDepUnit__1.insertedStores            0                       # Number of stores inserted to the mem dependence unit. (Count)
system.cpu0.MemDepUnit__1.conflictingLoads            0                       # Number of conflicting loads. (Count)
system.cpu0.MemDepUnit__1.conflictingStores            0                       # Number of conflicting stores. (Count)
system.cpu0.MemDepUnit__2.insertedLoads             0                       # Number of loads inserted to the mem dependence unit. (Count)
system.cpu0.MemDepUnit__2.insertedStores            0                       # Number of stores inserted to the mem dependence unit. (Count)
system.cpu0.MemDepUnit__2.conflictingLoads            0                       # Number of conflicting loads. (Count)
system.cpu0.MemDepUnit__2.conflictingStores            0                       # Number of conflicting stores. (Count)
system.cpu0.MemDepUnit__3.insertedLoads             0                       # Number of loads inserted to the mem dependence unit. (Count)
system.cpu0.MemDepUnit__3.insertedStores            0                       # Number of stores inserted to the mem dependence unit. (Count)
system.cpu0.MemDepUnit__3.conflictingLoads            0                       # Number of conflicting loads. (Count)
system.cpu0.MemDepUnit__3.conflictingStores            0                       # Number of conflicting stores. (Count)
system.cpu0.branchPred.lookups                7919409                       # Number of BP lookups (Count)
system.cpu0.branchPred.condPredicted          3711555                       # Number of conditional branches predicted (Count)
system.cpu0.branchPred.condIncorrect             1729                       # Number of conditional branches incorrect (Count)
system.cpu0.branchPred.BTBLookups             5809151                       # Number of BTB lookups (Count)
system.cpu0.branchPred.BTBHits                5807306                       # Number of BTB hits (Count)
system.cpu0.branchPred.BTBHitRatio           0.999682                       # BTB Hit Ratio (Ratio)
system.cpu0.branchPred.RASUsed                2102803                       # Number of times the RAS was used to get a target. (Count)
system.cpu0.branchPred.RASIncorrect                10                       # Number of incorrect RAS predictions. (Count)
system.cpu0.branchPred.indirectLookups            390                       # Number of indirect predictor lookups. (Count)
system.cpu0.branchPred.indirectHits                54                       # Number of indirect target hits. (Count)
system.cpu0.branchPred.indirectMisses             336                       # Number of indirect misses. (Count)
system.cpu0.branchPred.indirectMispredicted          105                       # Number of mispredicted indirect branches. (Count)
system.cpu0.commit.commitSquashedInsts         243261                       # The number of squashed insts skipped by commit (Count)
system.cpu0.commit.commitNonSpecStalls            650                       # The number of times commit has been forced to stall to communicate backwards (Count)
system.cpu0.commit.branchMispredicts             1260                       # The number of times a branch was mispredicted (Count)
system.cpu0.commit.numCommittedDist::samples    231457481                       # Number of insts commited each cycle (Count)
system.cpu0.commit.numCommittedDist::mean     0.539776                       # Number of insts commited each cycle (Count)
system.cpu0.commit.numCommittedDist::stdev     1.370938                       # Number of insts commited each cycle (Count)
system.cpu0.commit.numCommittedDist::underflows            0      0.00%      0.00% # Number of insts commited each cycle (Count)
system.cpu0.commit.numCommittedDist::0      172705531     74.62%     74.62% # Number of insts commited each cycle (Count)
system.cpu0.commit.numCommittedDist::1       32839111     14.19%     88.80% # Number of insts commited each cycle (Count)
system.cpu0.commit.numCommittedDist::2       15407082      6.66%     95.46% # Number of insts commited each cycle (Count)
system.cpu0.commit.numCommittedDist::3        2504849      1.08%     96.54% # Number of insts commited each cycle (Count)
system.cpu0.commit.numCommittedDist::4        1891092      0.82%     97.36% # Number of insts commited each cycle (Count)
system.cpu0.commit.numCommittedDist::5         713540      0.31%     97.67% # Number of insts commited each cycle (Count)
system.cpu0.commit.numCommittedDist::6           4578      0.00%     97.67% # Number of insts commited each cycle (Count)
system.cpu0.commit.numCommittedDist::7         525708      0.23%     97.90% # Number of insts commited each cycle (Count)
system.cpu0.commit.numCommittedDist::8        4865990      2.10%    100.00% # Number of insts commited each cycle (Count)
system.cpu0.commit.numCommittedDist::overflows            0      0.00%    100.00% # Number of insts commited each cycle (Count)
system.cpu0.commit.numCommittedDist::min_value            0                       # Number of insts commited each cycle (Count)
system.cpu0.commit.numCommittedDist::max_value            8                       # Number of insts commited each cycle (Count)
system.cpu0.commit.numCommittedDist::total    231457481                       # Number of insts commited each cycle (Count)
system.cpu0.commit.instsCommitted           124935094                       # Number of instructions committed (Count)
system.cpu0.commit.opsCommitted             124935234                       # Number of ops (including micro ops) committed (Count)
system.cpu0.commit.memRefs                   26798787                       # Number of memory references committed (Count)
system.cpu0.commit.loads                     21529358                       # Number of loads committed (Count)
system.cpu0.commit.amos                           184                       # Number of atomic instructions committed (Count)
system.cpu0.commit.membars                        290                       # Number of memory barriers committed (Count)
system.cpu0.commit.branches                   7889068                       # Number of branches committed (Count)
system.cpu0.commit.vectorInstructions               0                       # Number of committed Vector instructions. (Count)
system.cpu0.commit.floating                  71827610                       # Number of committed floating point instructions. (Count)
system.cpu0.commit.integer                   79321512                       # Number of committed integer instructions. (Count)
system.cpu0.commit.functionCalls              2097761                       # Number of function calls committed. (Count)
system.cpu0.commit.committedInstType_0::No_OpClass          299      0.00%      0.00% # Class of committed instruction (Count)
system.cpu0.commit.committedInstType_0::IntAlu     34697029     27.77%     27.77% # Class of committed instruction (Count)
system.cpu0.commit.committedInstType_0::IntMult           57      0.00%     27.77% # Class of committed instruction (Count)
system.cpu0.commit.committedInstType_0::IntDiv          122      0.00%     27.77% # Class of committed instruction (Count)
system.cpu0.commit.committedInstType_0::FloatAdd     14155794     11.33%     39.10% # Class of committed instruction (Count)
system.cpu0.commit.committedInstType_0::FloatCmp            6      0.00%     39.10% # Class of committed instruction (Count)
system.cpu0.commit.committedInstType_0::FloatCvt     17825825     14.27%     53.37% # Class of committed instruction (Count)
system.cpu0.commit.committedInstType_0::FloatMult     28311577     22.66%     76.03% # Class of committed instruction (Count)
system.cpu0.commit.committedInstType_0::FloatMultAcc            0      0.00%     76.03% # Class of committed instruction (Count)
system.cpu0.commit.committedInstType_0::FloatDiv            0      0.00%     76.03% # Class of committed instruction (Count)
system.cpu0.commit.committedInstType_0::FloatMisc      3145738      2.52%     78.55% # Class of committed instruction (Count)
system.cpu0.commit.committedInstType_0::FloatSqrt            0      0.00%     78.55% # Class of committed instruction (Count)
system.cpu0.commit.committedInstType_0::SimdAdd            0      0.00%     78.55% # Class of committed instruction (Count)
system.cpu0.commit.committedInstType_0::SimdAddAcc            0      0.00%     78.55% # Class of committed instruction (Count)
system.cpu0.commit.committedInstType_0::SimdAlu            0      0.00%     78.55% # Class of committed instruction (Count)
system.cpu0.commit.committedInstType_0::SimdCmp            0      0.00%     78.55% # Class of committed instruction (Count)
system.cpu0.commit.committedInstType_0::SimdCvt            0      0.00%     78.55% # Class of committed instruction (Count)
system.cpu0.commit.committedInstType_0::SimdMisc            0      0.00%     78.55% # Class of committed instruction (Count)
system.cpu0.commit.committedInstType_0::SimdMult            0      0.00%     78.55% # Class of committed instruction (Count)
system.cpu0.commit.committedInstType_0::SimdMultAcc            0      0.00%     78.55% # Class of committed instruction (Count)
system.cpu0.commit.committedInstType_0::SimdShift            0      0.00%     78.55% # Class of committed instruction (Count)
system.cpu0.commit.committedInstType_0::SimdShiftAcc            0      0.00%     78.55% # Class of committed instruction (Count)
system.cpu0.commit.committedInstType_0::SimdDiv            0      0.00%     78.55% # Class of committed instruction (Count)
system.cpu0.commit.committedInstType_0::SimdSqrt            0      0.00%     78.55% # Class of committed instruction (Count)
system.cpu0.commit.committedInstType_0::SimdFloatAdd            0      0.00%     78.55% # Class of committed instruction (Count)
system.cpu0.commit.committedInstType_0::SimdFloatAlu            0      0.00%     78.55% # Class of committed instruction (Count)
system.cpu0.commit.committedInstType_0::SimdFloatCmp            0      0.00%     78.55% # Class of committed instruction (Count)
system.cpu0.commit.committedInstType_0::SimdFloatCvt            0      0.00%     78.55% # Class of committed instruction (Count)
system.cpu0.commit.committedInstType_0::SimdFloatDiv            0      0.00%     78.55% # Class of committed instruction (Count)
system.cpu0.commit.committedInstType_0::SimdFloatMisc            0      0.00%     78.55% # Class of committed instruction (Count)
system.cpu0.commit.committedInstType_0::SimdFloatMult            0      0.00%     78.55% # Class of committed instruction (Count)
system.cpu0.commit.committedInstType_0::SimdFloatMultAcc            0      0.00%     78.55% # Class of committed instruction (Count)
system.cpu0.commit.committedInstType_0::SimdFloatSqrt            0      0.00%     78.55% # Class of committed instruction (Count)
system.cpu0.commit.committedInstType_0::SimdReduceAdd            0      0.00%     78.55% # Class of committed instruction (Count)
system.cpu0.commit.committedInstType_0::SimdReduceAlu            0      0.00%     78.55% # Class of committed instruction (Count)
system.cpu0.commit.committedInstType_0::SimdReduceCmp            0      0.00%     78.55% # Class of committed instruction (Count)
system.cpu0.commit.committedInstType_0::SimdFloatReduceAdd            0      0.00%     78.55% # Class of committed instruction (Count)
system.cpu0.commit.committedInstType_0::SimdFloatReduceCmp            0      0.00%     78.55% # Class of committed instruction (Count)
system.cpu0.commit.committedInstType_0::SimdAes            0      0.00%     78.55% # Class of committed instruction (Count)
system.cpu0.commit.committedInstType_0::SimdAesMix            0      0.00%     78.55% # Class of committed instruction (Count)
system.cpu0.commit.committedInstType_0::SimdSha1Hash            0      0.00%     78.55% # Class of committed instruction (Count)
system.cpu0.commit.committedInstType_0::SimdSha1Hash2            0      0.00%     78.55% # Class of committed instruction (Count)
system.cpu0.commit.committedInstType_0::SimdSha256Hash            0      0.00%     78.55% # Class of committed instruction (Count)
system.cpu0.commit.committedInstType_0::SimdSha256Hash2            0      0.00%     78.55% # Class of committed instruction (Count)
system.cpu0.commit.committedInstType_0::SimdShaSigma2            0      0.00%     78.55% # Class of committed instruction (Count)
system.cpu0.commit.committedInstType_0::SimdShaSigma3            0      0.00%     78.55% # Class of committed instruction (Count)
system.cpu0.commit.committedInstType_0::SimdPredAlu            0      0.00%     78.55% # Class of committed instruction (Count)
system.cpu0.commit.committedInstType_0::MemRead     13140907     10.52%     89.07% # Class of committed instruction (Count)
system.cpu0.commit.committedInstType_0::MemWrite      5269210      4.22%     93.29% # Class of committed instruction (Count)
system.cpu0.commit.committedInstType_0::FloatMemRead      8388635      6.71%    100.00% # Class of committed instruction (Count)
system.cpu0.commit.committedInstType_0::FloatMemWrite           35      0.00%    100.00% # Class of committed instruction (Count)
system.cpu0.commit.committedInstType_0::IprAccess            0      0.00%    100.00% # Class of committed instruction (Count)
system.cpu0.commit.committedInstType_0::InstPrefetch            0      0.00%    100.00% # Class of committed instruction (Count)
system.cpu0.commit.committedInstType_0::total    124935234                       # Class of committed instruction (Count)
system.cpu0.commit.commitEligibleSamples      4865990                       # number cycles where commit BW limit reached (Cycle)
system.cpu0.dcache.demandHits::cpu0.data     22951179                       # number of demand (read+write) hits (Count)
system.cpu0.dcache.demandHits::total         22951179                       # number of demand (read+write) hits (Count)
system.cpu0.dcache.overallHits::cpu0.data     22951179                       # number of overall hits (Count)
system.cpu0.dcache.overallHits::total        22951179                       # number of overall hits (Count)
system.cpu0.dcache.demandMisses::cpu0.data      3851876                       # number of demand (read+write) misses (Count)
system.cpu0.dcache.demandMisses::total        3851876                       # number of demand (read+write) misses (Count)
system.cpu0.dcache.overallMisses::cpu0.data      3851876                       # number of overall misses (Count)
system.cpu0.dcache.overallMisses::total       3851876                       # number of overall misses (Count)
system.cpu0.dcache.demandMissLatency::cpu0.data 264452860463                       # number of demand (read+write) miss ticks (Tick)
system.cpu0.dcache.demandMissLatency::total 264452860463                       # number of demand (read+write) miss ticks (Tick)
system.cpu0.dcache.overallMissLatency::cpu0.data 264452860463                       # number of overall miss ticks (Tick)
system.cpu0.dcache.overallMissLatency::total 264452860463                       # number of overall miss ticks (Tick)
system.cpu0.dcache.demandAccesses::cpu0.data     26803055                       # number of demand (read+write) accesses (Count)
system.cpu0.dcache.demandAccesses::total     26803055                       # number of demand (read+write) accesses (Count)
system.cpu0.dcache.overallAccesses::cpu0.data     26803055                       # number of overall (read+write) accesses (Count)
system.cpu0.dcache.overallAccesses::total     26803055                       # number of overall (read+write) accesses (Count)
system.cpu0.dcache.demandMissRate::cpu0.data     0.143710                       # miss rate for demand accesses (Ratio)
system.cpu0.dcache.demandMissRate::total     0.143710                       # miss rate for demand accesses (Ratio)
system.cpu0.dcache.overallMissRate::cpu0.data     0.143710                       # miss rate for overall accesses (Ratio)
system.cpu0.dcache.overallMissRate::total     0.143710                       # miss rate for overall accesses (Ratio)
system.cpu0.dcache.demandAvgMissLatency::cpu0.data 68655.600664                       # average overall miss latency in ticks ((Tick/Count))
system.cpu0.dcache.demandAvgMissLatency::total 68655.600664                       # average overall miss latency in ticks ((Tick/Count))
system.cpu0.dcache.overallAvgMissLatency::cpu0.data 68655.600664                       # average overall miss latency ((Tick/Count))
system.cpu0.dcache.overallAvgMissLatency::total 68655.600664                       # average overall miss latency ((Tick/Count))
system.cpu0.dcache.blockedCycles::no_mshrs     12039623                       # number of cycles access was blocked (Cycle)
system.cpu0.dcache.blockedCycles::no_targets            0                       # number of cycles access was blocked (Cycle)
system.cpu0.dcache.blockedCauses::no_mshrs       536009                       # number of times access was blocked (Count)
system.cpu0.dcache.blockedCauses::no_targets            0                       # number of times access was blocked (Count)
system.cpu0.dcache.avgBlocked::no_mshrs     22.461606                       # average number of cycles each access was blocked ((Cycle/Count))
system.cpu0.dcache.avgBlocked::no_targets          nan                       # average number of cycles each access was blocked ((Cycle/Count))
system.cpu0.dcache.writebacks::writebacks       973531                       # number of writebacks (Count)
system.cpu0.dcache.writebacks::total           973531                       # number of writebacks (Count)
system.cpu0.dcache.demandMshrHits::cpu0.data      2483322                       # number of demand (read+write) MSHR hits (Count)
system.cpu0.dcache.demandMshrHits::total      2483322                       # number of demand (read+write) MSHR hits (Count)
system.cpu0.dcache.overallMshrHits::cpu0.data      2483322                       # number of overall MSHR hits (Count)
system.cpu0.dcache.overallMshrHits::total      2483322                       # number of overall MSHR hits (Count)
system.cpu0.dcache.demandMshrMisses::cpu0.data      1368554                       # number of demand (read+write) MSHR misses (Count)
system.cpu0.dcache.demandMshrMisses::total      1368554                       # number of demand (read+write) MSHR misses (Count)
system.cpu0.dcache.overallMshrMisses::cpu0.data      1368554                       # number of overall MSHR misses (Count)
system.cpu0.dcache.overallMshrMisses::total      1368554                       # number of overall MSHR misses (Count)
system.cpu0.dcache.demandMshrMissLatency::cpu0.data  71771075386                       # number of demand (read+write) MSHR miss ticks (Tick)
system.cpu0.dcache.demandMshrMissLatency::total  71771075386                       # number of demand (read+write) MSHR miss ticks (Tick)
system.cpu0.dcache.overallMshrMissLatency::cpu0.data  71771075386                       # number of overall MSHR miss ticks (Tick)
system.cpu0.dcache.overallMshrMissLatency::total  71771075386                       # number of overall MSHR miss ticks (Tick)
system.cpu0.dcache.demandMshrMissRate::cpu0.data     0.051060                       # mshr miss ratio for demand accesses (Ratio)
system.cpu0.dcache.demandMshrMissRate::total     0.051060                       # mshr miss ratio for demand accesses (Ratio)
system.cpu0.dcache.overallMshrMissRate::cpu0.data     0.051060                       # mshr miss ratio for overall accesses (Ratio)
system.cpu0.dcache.overallMshrMissRate::total     0.051060                       # mshr miss ratio for overall accesses (Ratio)
system.cpu0.dcache.demandAvgMshrMissLatency::cpu0.data 52442.998512                       # average overall mshr miss latency ((Tick/Count))
system.cpu0.dcache.demandAvgMshrMissLatency::total 52442.998512                       # average overall mshr miss latency ((Tick/Count))
system.cpu0.dcache.overallAvgMshrMissLatency::cpu0.data 52442.998512                       # average overall mshr miss latency ((Tick/Count))
system.cpu0.dcache.overallAvgMshrMissLatency::total 52442.998512                       # average overall mshr miss latency ((Tick/Count))
system.cpu0.dcache.replacements               1363662                       # number of replacements (Count)
system.cpu0.dcache.LoadLockedReq.hits::cpu0.data           82                       # number of LoadLockedReq hits (Count)
system.cpu0.dcache.LoadLockedReq.hits::total           82                       # number of LoadLockedReq hits (Count)
system.cpu0.dcache.LoadLockedReq.misses::cpu0.data           35                       # number of LoadLockedReq misses (Count)
system.cpu0.dcache.LoadLockedReq.misses::total           35                       # number of LoadLockedReq misses (Count)
system.cpu0.dcache.LoadLockedReq.missLatency::cpu0.data      1916082                       # number of LoadLockedReq miss ticks (Tick)
system.cpu0.dcache.LoadLockedReq.missLatency::total      1916082                       # number of LoadLockedReq miss ticks (Tick)
system.cpu0.dcache.LoadLockedReq.accesses::cpu0.data          117                       # number of LoadLockedReq accesses(hits+misses) (Count)
system.cpu0.dcache.LoadLockedReq.accesses::total          117                       # number of LoadLockedReq accesses(hits+misses) (Count)
system.cpu0.dcache.LoadLockedReq.missRate::cpu0.data     0.299145                       # miss rate for LoadLockedReq accesses (Ratio)
system.cpu0.dcache.LoadLockedReq.missRate::total     0.299145                       # miss rate for LoadLockedReq accesses (Ratio)
system.cpu0.dcache.LoadLockedReq.avgMissLatency::cpu0.data 54745.200000                       # average LoadLockedReq miss latency ((Tick/Count))
system.cpu0.dcache.LoadLockedReq.avgMissLatency::total 54745.200000                       # average LoadLockedReq miss latency ((Tick/Count))
system.cpu0.dcache.LoadLockedReq.mshrHits::cpu0.data           30                       # number of LoadLockedReq MSHR hits (Count)
system.cpu0.dcache.LoadLockedReq.mshrHits::total           30                       # number of LoadLockedReq MSHR hits (Count)
system.cpu0.dcache.LoadLockedReq.mshrMisses::cpu0.data            5                       # number of LoadLockedReq MSHR misses (Count)
system.cpu0.dcache.LoadLockedReq.mshrMisses::total            5                       # number of LoadLockedReq MSHR misses (Count)
system.cpu0.dcache.LoadLockedReq.mshrMissLatency::cpu0.data       416250                       # number of LoadLockedReq MSHR miss ticks (Tick)
system.cpu0.dcache.LoadLockedReq.mshrMissLatency::total       416250                       # number of LoadLockedReq MSHR miss ticks (Tick)
system.cpu0.dcache.LoadLockedReq.mshrMissRate::cpu0.data     0.042735                       # mshr miss rate for LoadLockedReq accesses (Ratio)
system.cpu0.dcache.LoadLockedReq.mshrMissRate::total     0.042735                       # mshr miss rate for LoadLockedReq accesses (Ratio)
system.cpu0.dcache.LoadLockedReq.avgMshrMissLatency::cpu0.data        83250                       # average LoadLockedReq mshr miss latency ((Tick/Count))
system.cpu0.dcache.LoadLockedReq.avgMshrMissLatency::total        83250                       # average LoadLockedReq mshr miss latency ((Tick/Count))
system.cpu0.dcache.ReadReq.hits::cpu0.data     18690577                       # number of ReadReq hits (Count)
system.cpu0.dcache.ReadReq.hits::total       18690577                       # number of ReadReq hits (Count)
system.cpu0.dcache.ReadReq.misses::cpu0.data      2843332                       # number of ReadReq misses (Count)
system.cpu0.dcache.ReadReq.misses::total      2843332                       # number of ReadReq misses (Count)
system.cpu0.dcache.ReadReq.missLatency::cpu0.data 225205575660                       # number of ReadReq miss ticks (Tick)
system.cpu0.dcache.ReadReq.missLatency::total 225205575660                       # number of ReadReq miss ticks (Tick)
system.cpu0.dcache.ReadReq.accesses::cpu0.data     21533909                       # number of ReadReq accesses(hits+misses) (Count)
system.cpu0.dcache.ReadReq.accesses::total     21533909                       # number of ReadReq accesses(hits+misses) (Count)
system.cpu0.dcache.ReadReq.missRate::cpu0.data     0.132040                       # miss rate for ReadReq accesses (Ratio)
system.cpu0.dcache.ReadReq.missRate::total     0.132040                       # miss rate for ReadReq accesses (Ratio)
system.cpu0.dcache.ReadReq.avgMissLatency::cpu0.data 79204.811700                       # average ReadReq miss latency ((Tick/Count))
system.cpu0.dcache.ReadReq.avgMissLatency::total 79204.811700                       # average ReadReq miss latency ((Tick/Count))
system.cpu0.dcache.ReadReq.mshrHits::cpu0.data      2380597                       # number of ReadReq MSHR hits (Count)
system.cpu0.dcache.ReadReq.mshrHits::total      2380597                       # number of ReadReq MSHR hits (Count)
system.cpu0.dcache.ReadReq.mshrMisses::cpu0.data       462735                       # number of ReadReq MSHR misses (Count)
system.cpu0.dcache.ReadReq.mshrMisses::total       462735                       # number of ReadReq MSHR misses (Count)
system.cpu0.dcache.ReadReq.mshrMissLatency::cpu0.data  36461379789                       # number of ReadReq MSHR miss ticks (Tick)
system.cpu0.dcache.ReadReq.mshrMissLatency::total  36461379789                       # number of ReadReq MSHR miss ticks (Tick)
system.cpu0.dcache.ReadReq.mshrMissRate::cpu0.data     0.021489                       # mshr miss rate for ReadReq accesses (Ratio)
system.cpu0.dcache.ReadReq.mshrMissRate::total     0.021489                       # mshr miss rate for ReadReq accesses (Ratio)
system.cpu0.dcache.ReadReq.avgMshrMissLatency::cpu0.data 78795.379189                       # average ReadReq mshr miss latency ((Tick/Count))
system.cpu0.dcache.ReadReq.avgMshrMissLatency::total 78795.379189                       # average ReadReq mshr miss latency ((Tick/Count))
system.cpu0.dcache.StoreCondReq.hits::cpu0.data           81                       # number of StoreCondReq hits (Count)
system.cpu0.dcache.StoreCondReq.hits::total           81                       # number of StoreCondReq hits (Count)
system.cpu0.dcache.StoreCondReq.misses::cpu0.data           18                       # number of StoreCondReq misses (Count)
system.cpu0.dcache.StoreCondReq.misses::total           18                       # number of StoreCondReq misses (Count)
system.cpu0.dcache.StoreCondReq.missLatency::cpu0.data       433233                       # number of StoreCondReq miss ticks (Tick)
system.cpu0.dcache.StoreCondReq.missLatency::total       433233                       # number of StoreCondReq miss ticks (Tick)
system.cpu0.dcache.StoreCondReq.accesses::cpu0.data           99                       # number of StoreCondReq accesses(hits+misses) (Count)
system.cpu0.dcache.StoreCondReq.accesses::total           99                       # number of StoreCondReq accesses(hits+misses) (Count)
system.cpu0.dcache.StoreCondReq.missRate::cpu0.data     0.181818                       # miss rate for StoreCondReq accesses (Ratio)
system.cpu0.dcache.StoreCondReq.missRate::total     0.181818                       # miss rate for StoreCondReq accesses (Ratio)
system.cpu0.dcache.StoreCondReq.avgMissLatency::cpu0.data 24068.500000                       # average StoreCondReq miss latency ((Tick/Count))
system.cpu0.dcache.StoreCondReq.avgMissLatency::total 24068.500000                       # average StoreCondReq miss latency ((Tick/Count))
system.cpu0.dcache.StoreCondReq.mshrMisses::cpu0.data           18                       # number of StoreCondReq MSHR misses (Count)
system.cpu0.dcache.StoreCondReq.mshrMisses::total           18                       # number of StoreCondReq MSHR misses (Count)
system.cpu0.dcache.StoreCondReq.mshrMissLatency::cpu0.data       421245                       # number of StoreCondReq MSHR miss ticks (Tick)
system.cpu0.dcache.StoreCondReq.mshrMissLatency::total       421245                       # number of StoreCondReq MSHR miss ticks (Tick)
system.cpu0.dcache.StoreCondReq.mshrMissRate::cpu0.data     0.181818                       # mshr miss rate for StoreCondReq accesses (Ratio)
system.cpu0.dcache.StoreCondReq.mshrMissRate::total     0.181818                       # mshr miss rate for StoreCondReq accesses (Ratio)
system.cpu0.dcache.StoreCondReq.avgMshrMissLatency::cpu0.data 23402.500000                       # average StoreCondReq mshr miss latency ((Tick/Count))
system.cpu0.dcache.StoreCondReq.avgMshrMissLatency::total 23402.500000                       # average StoreCondReq mshr miss latency ((Tick/Count))
system.cpu0.dcache.SwapReq.hits::cpu0.data          157                       # number of SwapReq hits (Count)
system.cpu0.dcache.SwapReq.hits::total            157                       # number of SwapReq hits (Count)
system.cpu0.dcache.SwapReq.misses::cpu0.data           27                       # number of SwapReq misses (Count)
system.cpu0.dcache.SwapReq.misses::total           27                       # number of SwapReq misses (Count)
system.cpu0.dcache.SwapReq.missLatency::cpu0.data       987012                       # number of SwapReq miss ticks (Tick)
system.cpu0.dcache.SwapReq.missLatency::total       987012                       # number of SwapReq miss ticks (Tick)
system.cpu0.dcache.SwapReq.accesses::cpu0.data          184                       # number of SwapReq accesses(hits+misses) (Count)
system.cpu0.dcache.SwapReq.accesses::total          184                       # number of SwapReq accesses(hits+misses) (Count)
system.cpu0.dcache.SwapReq.missRate::cpu0.data     0.146739                       # miss rate for SwapReq accesses (Ratio)
system.cpu0.dcache.SwapReq.missRate::total     0.146739                       # miss rate for SwapReq accesses (Ratio)
system.cpu0.dcache.SwapReq.avgMissLatency::cpu0.data        36556                       # average SwapReq miss latency ((Tick/Count))
system.cpu0.dcache.SwapReq.avgMissLatency::total        36556                       # average SwapReq miss latency ((Tick/Count))
system.cpu0.dcache.SwapReq.mshrHits::cpu0.data           10                       # number of SwapReq MSHR hits (Count)
system.cpu0.dcache.SwapReq.mshrHits::total           10                       # number of SwapReq MSHR hits (Count)
system.cpu0.dcache.SwapReq.mshrMisses::cpu0.data           17                       # number of SwapReq MSHR misses (Count)
system.cpu0.dcache.SwapReq.mshrMisses::total           17                       # number of SwapReq MSHR misses (Count)
system.cpu0.dcache.SwapReq.mshrMissLatency::cpu0.data       969030                       # number of SwapReq MSHR miss ticks (Tick)
system.cpu0.dcache.SwapReq.mshrMissLatency::total       969030                       # number of SwapReq MSHR miss ticks (Tick)
system.cpu0.dcache.SwapReq.mshrMissRate::cpu0.data     0.092391                       # mshr miss rate for SwapReq accesses (Ratio)
system.cpu0.dcache.SwapReq.mshrMissRate::total     0.092391                       # mshr miss rate for SwapReq accesses (Ratio)
system.cpu0.dcache.SwapReq.avgMshrMissLatency::cpu0.data 57001.764706                       # average SwapReq mshr miss latency ((Tick/Count))
system.cpu0.dcache.SwapReq.avgMshrMissLatency::total 57001.764706                       # average SwapReq mshr miss latency ((Tick/Count))
system.cpu0.dcache.WriteReq.hits::cpu0.data      4260602                       # number of WriteReq hits (Count)
system.cpu0.dcache.WriteReq.hits::total       4260602                       # number of WriteReq hits (Count)
system.cpu0.dcache.WriteReq.misses::cpu0.data      1008544                       # number of WriteReq misses (Count)
system.cpu0.dcache.WriteReq.misses::total      1008544                       # number of WriteReq misses (Count)
system.cpu0.dcache.WriteReq.missLatency::cpu0.data  39247284803                       # number of WriteReq miss ticks (Tick)
system.cpu0.dcache.WriteReq.missLatency::total  39247284803                       # number of WriteReq miss ticks (Tick)
system.cpu0.dcache.WriteReq.accesses::cpu0.data      5269146                       # number of WriteReq accesses(hits+misses) (Count)
system.cpu0.dcache.WriteReq.accesses::total      5269146                       # number of WriteReq accesses(hits+misses) (Count)
system.cpu0.dcache.WriteReq.missRate::cpu0.data     0.191406                       # miss rate for WriteReq accesses (Ratio)
system.cpu0.dcache.WriteReq.missRate::total     0.191406                       # miss rate for WriteReq accesses (Ratio)
system.cpu0.dcache.WriteReq.avgMissLatency::cpu0.data 38914.796779                       # average WriteReq miss latency ((Tick/Count))
system.cpu0.dcache.WriteReq.avgMissLatency::total 38914.796779                       # average WriteReq miss latency ((Tick/Count))
system.cpu0.dcache.WriteReq.mshrHits::cpu0.data       102725                       # number of WriteReq MSHR hits (Count)
system.cpu0.dcache.WriteReq.mshrHits::total       102725                       # number of WriteReq MSHR hits (Count)
system.cpu0.dcache.WriteReq.mshrMisses::cpu0.data       905819                       # number of WriteReq MSHR misses (Count)
system.cpu0.dcache.WriteReq.mshrMisses::total       905819                       # number of WriteReq MSHR misses (Count)
system.cpu0.dcache.WriteReq.mshrMissLatency::cpu0.data  35309695597                       # number of WriteReq MSHR miss ticks (Tick)
system.cpu0.dcache.WriteReq.mshrMissLatency::total  35309695597                       # number of WriteReq MSHR miss ticks (Tick)
system.cpu0.dcache.WriteReq.mshrMissRate::cpu0.data     0.171910                       # mshr miss rate for WriteReq accesses (Ratio)
system.cpu0.dcache.WriteReq.mshrMissRate::total     0.171910                       # mshr miss rate for WriteReq accesses (Ratio)
system.cpu0.dcache.WriteReq.avgMshrMissLatency::cpu0.data 38980.961535                       # average WriteReq mshr miss latency ((Tick/Count))
system.cpu0.dcache.WriteReq.avgMshrMissLatency::total 38980.961535                       # average WriteReq mshr miss latency ((Tick/Count))
system.cpu0.dcache.power_state.pwrStateResidencyTicks::UNDEFINED  77263317009                       # Cumulative time (in ticks) in various power states (Tick)
system.cpu0.dcache.tags.tagsInUse          511.495256                       # Average ticks per tags in use ((Tick/Count))
system.cpu0.dcache.tags.totalRefs            24322086                       # Total number of references to valid blocks. (Count)
system.cpu0.dcache.tags.sampledRefs           1366269                       # Sample count of references to valid blocks. (Count)
system.cpu0.dcache.tags.avgRefs             17.801828                       # Average number of references to valid blocks. ((Count/Count))
system.cpu0.dcache.tags.warmupTick             268065                       # The tick when the warmup percentage was hit. (Tick)
system.cpu0.dcache.tags.occupancies::cpu0.data   511.495256                       # Average occupied blocks per tick, per requestor ((Count/Tick))
system.cpu0.dcache.tags.avgOccs::cpu0.data     0.999014                       # Average percentage of cache occupancy ((Ratio/Tick))
system.cpu0.dcache.tags.avgOccs::total       0.999014                       # Average percentage of cache occupancy ((Ratio/Tick))
system.cpu0.dcache.tags.occupanciesTaskId::1024          512                       # Occupied blocks per task id (Count)
system.cpu0.dcache.tags.ageTaskId_1024::0           46                       # Occupied blocks per task id, per block age (Count)
system.cpu0.dcache.tags.ageTaskId_1024::1          457                       # Occupied blocks per task id, per block age (Count)
system.cpu0.dcache.tags.ageTaskId_1024::3            9                       # Occupied blocks per task id, per block age (Count)
system.cpu0.dcache.tags.ratioOccsTaskId::1024            1                       # Ratio of occupied blocks and all blocks, per task id (Ratio)
system.cpu0.dcache.tags.tagAccesses         215793909                       # Number of tag accesses (Count)
system.cpu0.dcache.tags.dataAccesses        215793909                       # Number of data accesses (Count)
system.cpu0.dcache.tags.indexing_policy.tagAccessHist::samples     31310755                       # Histogram of set associative cache access per tag (Count)
system.cpu0.dcache.tags.indexing_policy.tagAccessHist::mean    32.625519                       # Histogram of set associative cache access per tag (Count)
system.cpu0.dcache.tags.indexing_policy.tagAccessHist::gmean            0                       # Histogram of set associative cache access per tag (Count)
system.cpu0.dcache.tags.indexing_policy.tagAccessHist::stdev    16.405536                       # Histogram of set associative cache access per tag (Count)
system.cpu0.dcache.tags.indexing_policy.tagAccessHist::0       775084      2.48%      2.48% # Histogram of set associative cache access per tag (Count)
system.cpu0.dcache.tags.indexing_policy.tagAccessHist::1      1053663      3.37%      5.84% # Histogram of set associative cache access per tag (Count)
system.cpu0.dcache.tags.indexing_policy.tagAccessHist::2       908640      2.90%      8.74% # Histogram of set associative cache access per tag (Count)
system.cpu0.dcache.tags.indexing_policy.tagAccessHist::3       525636      1.68%     10.42% # Histogram of set associative cache access per tag (Count)
system.cpu0.dcache.tags.indexing_policy.tagAccessHist::4       289555      0.92%     11.35% # Histogram of set associative cache access per tag (Count)
system.cpu0.dcache.tags.indexing_policy.tagAccessHist::5       237064      0.76%     12.10% # Histogram of set associative cache access per tag (Count)
system.cpu0.dcache.tags.indexing_policy.tagAccessHist::6       236416      0.76%     12.86% # Histogram of set associative cache access per tag (Count)
system.cpu0.dcache.tags.indexing_policy.tagAccessHist::7       234499      0.75%     13.61% # Histogram of set associative cache access per tag (Count)
system.cpu0.dcache.tags.indexing_policy.tagAccessHist::8       234912      0.75%     14.36% # Histogram of set associative cache access per tag (Count)
system.cpu0.dcache.tags.indexing_policy.tagAccessHist::9       234428      0.75%     15.11% # Histogram of set associative cache access per tag (Count)
system.cpu0.dcache.tags.indexing_policy.tagAccessHist::10       235140      0.75%     15.86% # Histogram of set associative cache access per tag (Count)
system.cpu0.dcache.tags.indexing_policy.tagAccessHist::11       234047      0.75%     16.60% # Histogram of set associative cache access per tag (Count)
system.cpu0.dcache.tags.indexing_policy.tagAccessHist::12       235113      0.75%     17.36% # Histogram of set associative cache access per tag (Count)
system.cpu0.dcache.tags.indexing_policy.tagAccessHist::13       235365      0.75%     18.11% # Histogram of set associative cache access per tag (Count)
system.cpu0.dcache.tags.indexing_policy.tagAccessHist::14       234652      0.75%     18.86% # Histogram of set associative cache access per tag (Count)
system.cpu0.dcache.tags.indexing_policy.tagAccessHist::15       235519      0.75%     19.61% # Histogram of set associative cache access per tag (Count)
system.cpu0.dcache.tags.indexing_policy.tagAccessHist::16       233432      0.75%     20.35% # Histogram of set associative cache access per tag (Count)
system.cpu0.dcache.tags.indexing_policy.tagAccessHist::17       234484      0.75%     21.10% # Histogram of set associative cache access per tag (Count)
system.cpu0.dcache.tags.indexing_policy.tagAccessHist::18       235267      0.75%     21.85% # Histogram of set associative cache access per tag (Count)
system.cpu0.dcache.tags.indexing_policy.tagAccessHist::19       234864      0.75%     22.60% # Histogram of set associative cache access per tag (Count)
system.cpu0.dcache.tags.indexing_policy.tagAccessHist::20       234974      0.75%     23.36% # Histogram of set associative cache access per tag (Count)
system.cpu0.dcache.tags.indexing_policy.tagAccessHist::21       235000      0.75%     24.11% # Histogram of set associative cache access per tag (Count)
system.cpu0.dcache.tags.indexing_policy.tagAccessHist::22       235111      0.75%     24.86% # Histogram of set associative cache access per tag (Count)
system.cpu0.dcache.tags.indexing_policy.tagAccessHist::23       234945      0.75%     25.61% # Histogram of set associative cache access per tag (Count)
system.cpu0.dcache.tags.indexing_policy.tagAccessHist::24       234729      0.75%     26.36% # Histogram of set associative cache access per tag (Count)
system.cpu0.dcache.tags.indexing_policy.tagAccessHist::25       234560      0.75%     27.11% # Histogram of set associative cache access per tag (Count)
system.cpu0.dcache.tags.indexing_policy.tagAccessHist::26       234420      0.75%     27.85% # Histogram of set associative cache access per tag (Count)
system.cpu0.dcache.tags.indexing_policy.tagAccessHist::27       234163      0.75%     28.60% # Histogram of set associative cache access per tag (Count)
system.cpu0.dcache.tags.indexing_policy.tagAccessHist::28       235698      0.75%     29.36% # Histogram of set associative cache access per tag (Count)
system.cpu0.dcache.tags.indexing_policy.tagAccessHist::29       235756      0.75%     30.11% # Histogram of set associative cache access per tag (Count)
system.cpu0.dcache.tags.indexing_policy.tagAccessHist::30       233862      0.75%     30.86% # Histogram of set associative cache access per tag (Count)
system.cpu0.dcache.tags.indexing_policy.tagAccessHist::31       235297      0.75%     31.61% # Histogram of set associative cache access per tag (Count)
system.cpu0.dcache.tags.indexing_policy.tagAccessHist::32       235181      0.75%     32.36% # Histogram of set associative cache access per tag (Count)
system.cpu0.dcache.tags.indexing_policy.tagAccessHist::33       234271      0.75%     33.11% # Histogram of set associative cache access per tag (Count)
system.cpu0.dcache.tags.indexing_policy.tagAccessHist::34       233497      0.75%     33.85% # Histogram of set associative cache access per tag (Count)
system.cpu0.dcache.tags.indexing_policy.tagAccessHist::35      2335042      7.46%     41.31% # Histogram of set associative cache access per tag (Count)
system.cpu0.dcache.tags.indexing_policy.tagAccessHist::36      6535731     20.87%     62.18% # Histogram of set associative cache access per tag (Count)
system.cpu0.dcache.tags.indexing_policy.tagAccessHist::37       234785      0.75%     62.93% # Histogram of set associative cache access per tag (Count)
system.cpu0.dcache.tags.indexing_policy.tagAccessHist::38       759618      2.43%     65.36% # Histogram of set associative cache access per tag (Count)
system.cpu0.dcache.tags.indexing_policy.tagAccessHist::39       244074      0.78%     66.14% # Histogram of set associative cache access per tag (Count)
system.cpu0.dcache.tags.indexing_policy.tagAccessHist::40       234193      0.75%     66.89% # Histogram of set associative cache access per tag (Count)
system.cpu0.dcache.tags.indexing_policy.tagAccessHist::41       235170      0.75%     67.64% # Histogram of set associative cache access per tag (Count)
system.cpu0.dcache.tags.indexing_policy.tagAccessHist::42       235791      0.75%     68.39% # Histogram of set associative cache access per tag (Count)
system.cpu0.dcache.tags.indexing_policy.tagAccessHist::43       235925      0.75%     69.14% # Histogram of set associative cache access per tag (Count)
system.cpu0.dcache.tags.indexing_policy.tagAccessHist::44      3391349     10.83%     79.98% # Histogram of set associative cache access per tag (Count)
system.cpu0.dcache.tags.indexing_policy.tagAccessHist::45      1818056      5.81%     85.78% # Histogram of set associative cache access per tag (Count)
system.cpu0.dcache.tags.indexing_policy.tagAccessHist::46       235321      0.75%     86.53% # Histogram of set associative cache access per tag (Count)
system.cpu0.dcache.tags.indexing_policy.tagAccessHist::47       235358      0.75%     87.29% # Histogram of set associative cache access per tag (Count)
system.cpu0.dcache.tags.indexing_policy.tagAccessHist::48       236291      0.75%     88.04% # Histogram of set associative cache access per tag (Count)
system.cpu0.dcache.tags.indexing_policy.tagAccessHist::49       235961      0.75%     88.79% # Histogram of set associative cache access per tag (Count)
system.cpu0.dcache.tags.indexing_policy.tagAccessHist::50       234283      0.75%     89.54% # Histogram of set associative cache access per tag (Count)
system.cpu0.dcache.tags.indexing_policy.tagAccessHist::51       234675      0.75%     90.29% # Histogram of set associative cache access per tag (Count)
system.cpu0.dcache.tags.indexing_policy.tagAccessHist::52       236450      0.76%     91.05% # Histogram of set associative cache access per tag (Count)
system.cpu0.dcache.tags.indexing_policy.tagAccessHist::53       235662      0.75%     91.80% # Histogram of set associative cache access per tag (Count)
system.cpu0.dcache.tags.indexing_policy.tagAccessHist::54       235212      0.75%     92.55% # Histogram of set associative cache access per tag (Count)
system.cpu0.dcache.tags.indexing_policy.tagAccessHist::55       233633      0.75%     93.30% # Histogram of set associative cache access per tag (Count)
system.cpu0.dcache.tags.indexing_policy.tagAccessHist::56       234936      0.75%     94.05% # Histogram of set associative cache access per tag (Count)
system.cpu0.dcache.tags.indexing_policy.tagAccessHist::57       235095      0.75%     94.80% # Histogram of set associative cache access per tag (Count)
system.cpu0.dcache.tags.indexing_policy.tagAccessHist::58       234693      0.75%     95.55% # Histogram of set associative cache access per tag (Count)
system.cpu0.dcache.tags.indexing_policy.tagAccessHist::59       234622      0.75%     96.30% # Histogram of set associative cache access per tag (Count)
system.cpu0.dcache.tags.indexing_policy.tagAccessHist::60       235279      0.75%     97.05% # Histogram of set associative cache access per tag (Count)
system.cpu0.dcache.tags.indexing_policy.tagAccessHist::61       254403      0.81%     97.86% # Histogram of set associative cache access per tag (Count)
system.cpu0.dcache.tags.indexing_policy.tagAccessHist::62       256502      0.82%     98.68% # Histogram of set associative cache access per tag (Count)
system.cpu0.dcache.tags.indexing_policy.tagAccessHist::63       413401      1.32%    100.00% # Histogram of set associative cache access per tag (Count)
system.cpu0.dcache.tags.indexing_policy.tagAccessHist::total     31310755                       # Histogram of set associative cache access per tag (Count)
system.cpu0.dcache.tags.power_state.pwrStateResidencyTicks::UNDEFINED  77263317009                       # Cumulative time (in ticks) in various power states (Tick)
system.cpu0.decode.idleCycles                 4432470                       # Number of cycles decode is idle (Cycle)
system.cpu0.decode.blockedCycles            211388600                       # Number of cycles decode is blocked (Cycle)
system.cpu0.decode.runCycles                  1401977                       # Number of cycles decode is running (Cycle)
system.cpu0.decode.unblockCycles             14263321                       # Number of cycles decode is unblocking (Cycle)
system.cpu0.decode.squashCycles                  3477                       # Number of cycles decode is squashing (Cycle)
system.cpu0.decode.branchResolved             5803071                       # Number of times decode resolved a branch (Count)
system.cpu0.decode.branchMispred                  526                       # Number of times decode detected a branch misprediction (Count)
system.cpu0.decode.decodedInsts             125226908                       # Number of instructions handled by decode (Count)
system.cpu0.decode.squashedInsts                 1927                       # Number of squashed instructions handled by decode (Count)
system.cpu0.dtb_walker_cache.blockedCycles::no_mshrs            0                       # number of cycles access was blocked (Cycle)
system.cpu0.dtb_walker_cache.blockedCycles::no_targets            0                       # number of cycles access was blocked (Cycle)
system.cpu0.dtb_walker_cache.blockedCauses::no_mshrs            0                       # number of times access was blocked (Count)
system.cpu0.dtb_walker_cache.blockedCauses::no_targets            0                       # number of times access was blocked (Count)
system.cpu0.dtb_walker_cache.avgBlocked::no_mshrs          nan                       # average number of cycles each access was blocked ((Cycle/Count))
system.cpu0.dtb_walker_cache.avgBlocked::no_targets          nan                       # average number of cycles each access was blocked ((Cycle/Count))
system.cpu0.dtb_walker_cache.replacements            0                       # number of replacements (Count)
system.cpu0.dtb_walker_cache.power_state.pwrStateResidencyTicks::UNDEFINED  77263317009                       # Cumulative time (in ticks) in various power states (Tick)
system.cpu0.dtb_walker_cache.tags.tagsInUse            0                       # Average ticks per tags in use ((Tick/Count))
system.cpu0.dtb_walker_cache.tags.totalRefs            0                       # Total number of references to valid blocks. (Count)
system.cpu0.dtb_walker_cache.tags.sampledRefs            0                       # Sample count of references to valid blocks. (Count)
system.cpu0.dtb_walker_cache.tags.avgRefs          nan                       # Average number of references to valid blocks. ((Count/Count))
system.cpu0.dtb_walker_cache.tags.warmupTick            0                       # The tick when the warmup percentage was hit. (Tick)
system.cpu0.dtb_walker_cache.tags.tagAccesses            0                       # Number of tag accesses (Count)
system.cpu0.dtb_walker_cache.tags.dataAccesses            0                       # Number of data accesses (Count)
system.cpu0.dtb_walker_cache.tags.indexing_policy.tagAccessHist::samples        73261                       # Histogram of set associative cache access per tag (Count)
system.cpu0.dtb_walker_cache.tags.indexing_policy.tagAccessHist::mean     3.501358                       # Histogram of set associative cache access per tag (Count)
system.cpu0.dtb_walker_cache.tags.indexing_policy.tagAccessHist::gmean            0                       # Histogram of set associative cache access per tag (Count)
system.cpu0.dtb_walker_cache.tags.indexing_policy.tagAccessHist::stdev     2.291669                       # Histogram of set associative cache access per tag (Count)
system.cpu0.dtb_walker_cache.tags.indexing_policy.tagAccessHist::0         9148     12.49%     12.49% # Histogram of set associative cache access per tag (Count)
system.cpu0.dtb_walker_cache.tags.indexing_policy.tagAccessHist::1         9164     12.51%     25.00% # Histogram of set associative cache access per tag (Count)
system.cpu0.dtb_walker_cache.tags.indexing_policy.tagAccessHist::2         9149     12.49%     37.48% # Histogram of set associative cache access per tag (Count)
system.cpu0.dtb_walker_cache.tags.indexing_policy.tagAccessHist::3         9148     12.49%     49.97% # Histogram of set associative cache access per tag (Count)
system.cpu0.dtb_walker_cache.tags.indexing_policy.tagAccessHist::4         9163     12.51%     62.48% # Histogram of set associative cache access per tag (Count)
system.cpu0.dtb_walker_cache.tags.indexing_policy.tagAccessHist::5         9155     12.50%     74.97% # Histogram of set associative cache access per tag (Count)
system.cpu0.dtb_walker_cache.tags.indexing_policy.tagAccessHist::6         9158     12.50%     87.47% # Histogram of set associative cache access per tag (Count)
system.cpu0.dtb_walker_cache.tags.indexing_policy.tagAccessHist::7         9176     12.53%    100.00% # Histogram of set associative cache access per tag (Count)
system.cpu0.dtb_walker_cache.tags.indexing_policy.tagAccessHist::total        73261                       # Histogram of set associative cache access per tag (Count)
system.cpu0.dtb_walker_cache.tags.power_state.pwrStateResidencyTicks::UNDEFINED  77263317009                       # Cumulative time (in ticks) in various power states (Tick)
system.cpu0.fetch.icacheStallCycles          12644443                       # Number of cycles fetch is stalled on an Icache miss (Cycle)
system.cpu0.fetch.insts                     125330636                       # Number of instructions fetch has processed (Count)
system.cpu0.fetch.branches                    7919409                       # Number of branches that fetch encountered (Count)
system.cpu0.fetch.predictedBranches           7910163                       # Number of branches that fetch has predicted taken (Count)
system.cpu0.fetch.cycles                    218841063                       # Number of cycles fetch has run and was not squashing or blocked (Cycle)
system.cpu0.fetch.squashCycles                   7954                       # Number of cycles fetch has spent squashing (Cycle)
system.cpu0.fetch.miscStallCycles                  63                       # Number of cycles fetch has spent waiting on interrupts, or bad addresses, or out of MSHRs (Cycle)
system.cpu0.fetch.pendingTrapStallCycles          189                       # Number of stall cycles due to pending traps (Cycle)
system.cpu0.fetch.icacheWaitRetryStallCycles          110                       # Number of stall cycles due to full MSHR (Cycle)
system.cpu0.fetch.cacheLines                 12620827                       # Number of cache lines fetched (Count)
system.cpu0.fetch.icacheSquashes                  975                       # Number of outstanding Icache misses that were squashed (Count)
system.cpu0.fetch.nisnDist::samples         231489845                       # Number of instructions fetched each cycle (Total) (Count)
system.cpu0.fetch.nisnDist::mean             0.541410                       # Number of instructions fetched each cycle (Total) (Count)
system.cpu0.fetch.nisnDist::stdev            1.796841                       # Number of instructions fetched each cycle (Total) (Count)
system.cpu0.fetch.nisnDist::underflows              0      0.00%      0.00% # Number of instructions fetched each cycle (Total) (Count)
system.cpu0.fetch.nisnDist::0               208142685     89.91%     89.91% # Number of instructions fetched each cycle (Total) (Count)
system.cpu0.fetch.nisnDist::1                 1836795      0.79%     90.71% # Number of instructions fetched each cycle (Total) (Count)
[...]
system.monitor.ittReqReq::65001-70000           51030      2.79%     86.15% # Request-to-request inter transaction time (Tick)
system.monitor.ittReqReq::70001-75000           95898      5.24%     91.39% # Request-to-request inter transaction time (Tick)
system.monitor.ittReqReq::75001-80000           14896      0.81%     92.20% # Request-to-request inter transaction time (Tick)
system.monitor.ittReqReq::80001-85000           15878      0.87%     93.07% # Request-to-request inter transaction time (Tick)
system.monitor.ittReqReq::85001-90000            5073      0.28%     93.35% # Request-to-request inter transaction time (Tick)
system.monitor.ittReqReq::90001-95000            2670      0.15%     93.49% # Request-to-request inter transaction time (Tick)
system.monitor.ittReqReq::95001-100000           3627      0.20%     93.69% # Request-to-request inter transaction time (Tick)
system.monitor.ittReqReq::overflows            115488      6.31%    100.00% # Request-to-request inter transaction time (Tick)
system.monitor.ittReqReq::min_value               333                       # Request-to-request inter transaction time (Tick)
system.monitor.ittReqReq::max_value           2274723                       # Request-to-request inter transaction time (Tick)
system.monitor.ittReqReq::total               1830108                       # Request-to-request inter transaction time (Tick)
system.monitor.outstandingReadsHist::samples           77                       # Outstanding read transactions (Count)
system.monitor.outstandingReadsHist::mean     1.623377                       # Outstanding read transactions (Count)
system.monitor.outstandingReadsHist::gmean            0                       # Outstanding read transactions (Count)
system.monitor.outstandingReadsHist::stdev     1.622530                       # Outstanding read transactions (Count)
system.monitor.outstandingReadsHist::0             20     25.97%     25.97% # Outstanding read transactions (Count)
system.monitor.outstandingReadsHist::1             25     32.47%     58.44% # Outstanding read transactions (Count)
system.monitor.outstandingReadsHist::2             17     22.08%     80.52% # Outstanding read transactions (Count)
system.monitor.outstandingReadsHist::3              4      5.19%     85.71% # Outstanding read transactions (Count)
system.monitor.outstandingReadsHist::4              4      5.19%     90.91% # Outstanding read transactions (Count)
system.monitor.outstandingReadsHist::5              5      6.49%     97.40% # Outstanding read transactions (Count)
system.monitor.outstandingReadsHist::6              1      1.30%     98.70% # Outstanding read transactions (Count)
system.monitor.outstandingReadsHist::7              1      1.30%    100.00% # Outstanding read transactions (Count)
system.monitor.outstandingReadsHist::8              0      0.00%    100.00% # Outstanding read transactions (Count)
system.monitor.outstandingReadsHist::9              0      0.00%    100.00% # Outstanding read transactions (Count)
system.monitor.outstandingReadsHist::10             0      0.00%    100.00% # Outstanding read transactions (Count)
system.monitor.outstandingReadsHist::11             0      0.00%    100.00% # Outstanding read transactions (Count)
system.monitor.outstandingReadsHist::12             0      0.00%    100.00% # Outstanding read transactions (Count)
system.monitor.outstandingReadsHist::13             0      0.00%    100.00% # Outstanding read transactions (Count)
system.monitor.outstandingReadsHist::14             0      0.00%    100.00% # Outstanding read transactions (Count)
system.monitor.outstandingReadsHist::15             0      0.00%    100.00% # Outstanding read transactions (Count)
system.monitor.outstandingReadsHist::16             0      0.00%    100.00% # Outstanding read transactions (Count)
system.monitor.outstandingReadsHist::17             0      0.00%    100.00% # Outstanding read transactions (Count)
system.monitor.outstandingReadsHist::18             0      0.00%    100.00% # Outstanding read transactions (Count)
system.monitor.outstandingReadsHist::19             0      0.00%    100.00% # Outstanding read transactions (Count)
system.monitor.outstandingReadsHist::total           77                       # Outstanding read transactions (Count)
system.monitor.outstandingWritesHist::samples           77                       # Outstanding write transactions (Count)
system.monitor.outstandingWritesHist::mean            0                       # Outstanding write transactions (Count)
system.monitor.outstandingWritesHist::gmean            0                       # Outstanding write transactions (Count)
system.monitor.outstandingWritesHist::stdev            0                       # Outstanding write transactions (Count)
system.monitor.outstandingWritesHist::0            77    100.00%    100.00% # Outstanding write transactions (Count)
system.monitor.outstandingWritesHist::1             0      0.00%    100.00% # Outstanding write transactions (Count)
system.monitor.outstandingWritesHist::2             0      0.00%    100.00% # Outstanding write transactions (Count)
system.monitor.outstandingWritesHist::3             0      0.00%    100.00% # Outstanding write transactions (Count)
system.monitor.outstandingWritesHist::4             0      0.00%    100.00% # Outstanding write transactions (Count)
system.monitor.outstandingWritesHist::5             0      0.00%    100.00% # Outstanding write transactions (Count)
system.monitor.outstandingWritesHist::6             0      0.00%    100.00% # Outstanding write transactions (Count)
system.monitor.outstandingWritesHist::7             0      0.00%    100.00% # Outstanding write transactions (Count)
system.monitor.outstandingWritesHist::8             0      0.00%    100.00% # Outstanding write transactions (Count)
system.monitor.outstandingWritesHist::9             0      0.00%    100.00% # Outstanding write transactions (Count)
system.monitor.outstandingWritesHist::10            0      0.00%    100.00% # Outstanding write transactions (Count)
system.monitor.outstandingWritesHist::11            0      0.00%    100.00% # Outstanding write transactions (Count)
system.monitor.outstandingWritesHist::12            0      0.00%    100.00% # Outstanding write transactions (Count)
system.monitor.outstandingWritesHist::13            0      0.00%    100.00% # Outstanding write transactions (Count)
system.monitor.outstandingWritesHist::14            0      0.00%    100.00% # Outstanding write transactions (Count)
system.monitor.outstandingWritesHist::15            0      0.00%    100.00% # Outstanding write transactions (Count)
system.monitor.outstandingWritesHist::16            0      0.00%    100.00% # Outstanding write transactions (Count)
system.monitor.outstandingWritesHist::17            0      0.00%    100.00% # Outstanding write transactions (Count)
system.monitor.outstandingWritesHist::18            0      0.00%    100.00% # Outstanding write transactions (Count)
system.monitor.outstandingWritesHist::19            0      0.00%    100.00% # Outstanding write transactions (Count)
system.monitor.outstandingWritesHist::total           77                       # Outstanding write transactions (Count)
system.monitor.readTransHist::samples              77                       # Histogram of read transactions per sample period (Count)
system.monitor.readTransHist::mean       16608.493506                       # Histogram of read transactions per sample period (Count)
system.monitor.readTransHist::gmean       9950.514917                       # Histogram of read transactions per sample period (Count)
system.monitor.readTransHist::stdev      14031.029333                       # Histogram of read transactions per sample period (Count)
system.monitor.readTransHist::0-2047                0      0.00%      0.00% # Histogram of read transactions per sample period (Count)
system.monitor.readTransHist::2048-4095            37     48.05%     48.05% # Histogram of read transactions per sample period (Count)
system.monitor.readTransHist::4096-6143             1      1.30%     49.35% # Histogram of read transactions per sample period (Count)
system.monitor.readTransHist::6144-8191             1      1.30%     50.65% # Histogram of read transactions per sample period (Count)
system.monitor.readTransHist::8192-10239            0      0.00%     50.65% # Histogram of read transactions per sample period (Count)
system.monitor.readTransHist::10240-12287            0      0.00%     50.65% # Histogram of read transactions per sample period (Count)
system.monitor.readTransHist::12288-14335            0      0.00%     50.65% # Histogram of read transactions per sample period (Count)
system.monitor.readTransHist::14336-16383            0      0.00%     50.65% # Histogram of read transactions per sample period (Count)
system.monitor.readTransHist::16384-18431            0      0.00%     50.65% # Histogram of read transactions per sample period (Count)
system.monitor.readTransHist::18432-20479            3      3.90%     54.55% # Histogram of read transactions per sample period (Count)
system.monitor.readTransHist::20480-22527            3      3.90%     58.44% # Histogram of read transactions per sample period (Count)
system.monitor.readTransHist::22528-24575            3      3.90%     62.34% # Histogram of read transactions per sample period (Count)
system.monitor.readTransHist::24576-26623            2      2.60%     64.94% # Histogram of read transactions per sample period (Count)
system.monitor.readTransHist::26624-28671            5      6.49%     71.43% # Histogram of read transactions per sample period (Count)
system.monitor.readTransHist::28672-30719            0      0.00%     71.43% # Histogram of read transactions per sample period (Count)
system.monitor.readTransHist::30720-32767            5      6.49%     77.92% # Histogram of read transactions per sample period (Count)
system.monitor.readTransHist::32768-34815            6      7.79%     85.71% # Histogram of read transactions per sample period (Count)
system.monitor.readTransHist::34816-36863            7      9.09%     94.81% # Histogram of read transactions per sample period (Count)
system.monitor.readTransHist::36864-38911            4      5.19%    100.00% # Histogram of read transactions per sample period (Count)
system.monitor.readTransHist::38912-40959            0      0.00%    100.00% # Histogram of read transactions per sample period (Count)
system.monitor.readTransHist::total                77                       # Histogram of read transactions per sample period (Count)
system.monitor.writeTransHist::samples             77                       # Histogram of write transactions per sample period (Count)
system.monitor.writeTransHist::mean       7003.870130                       # Histogram of write transactions per sample period (Count)
system.monitor.writeTransHist::gmean                0                       # Histogram of write transactions per sample period (Count)
system.monitor.writeTransHist::stdev      6251.701470                       # Histogram of write transactions per sample period (Count)
system.monitor.writeTransHist::0-1023              14     18.18%     18.18% # Histogram of write transactions per sample period (Count)
system.monitor.writeTransHist::1024-2047            1      1.30%     19.48% # Histogram of write transactions per sample period (Count)
system.monitor.writeTransHist::2048-3071            1      1.30%     20.78% # Histogram of write transactions per sample period (Count)
system.monitor.writeTransHist::3072-4095           29     37.66%     58.44% # Histogram of write transactions per sample period (Count)
system.monitor.writeTransHist::4096-5119            1      1.30%     59.74% # Histogram of write transactions per sample period (Count)
system.monitor.writeTransHist::5120-6143            0      0.00%     59.74% # Histogram of write transactions per sample period (Count)
system.monitor.writeTransHist::6144-7167            1      1.30%     61.04% # Histogram of write transactions per sample period (Count)
system.monitor.writeTransHist::7168-8191            0      0.00%     61.04% # Histogram of write transactions per sample period (Count)
system.monitor.writeTransHist::8192-9215            3      3.90%     64.94% # Histogram of write transactions per sample period (Count)
system.monitor.writeTransHist::9216-10239            3      3.90%     68.83% # Histogram of write transactions per sample period (Count)
system.monitor.writeTransHist::10240-11263            2      2.60%     71.43% # Histogram of write transactions per sample period (Count)
system.monitor.writeTransHist::11264-12287            3      3.90%     75.32% # Histogram of write transactions per sample period (Count)
system.monitor.writeTransHist::12288-13311            0      0.00%     75.32% # Histogram of write transactions per sample period (Count)
system.monitor.writeTransHist::13312-14335            1      1.30%     76.62% # Histogram of write transactions per sample period (Count)
system.monitor.writeTransHist::14336-15359            3      3.90%     80.52% # Histogram of write transactions per sample period (Count)
system.monitor.writeTransHist::15360-16383            3      3.90%     84.42% # Histogram of write transactions per sample period (Count)
system.monitor.writeTransHist::16384-17407            9     11.69%     96.10% # Histogram of write transactions per sample period (Count)
system.monitor.writeTransHist::17408-18431            2      2.60%     98.70% # Histogram of write transactions per sample period (Count)
system.monitor.writeTransHist::18432-19455            0      0.00%     98.70% # Histogram of write transactions per sample period (Count)
system.monitor.writeTransHist::19456-20479            1      1.30%    100.00% # Histogram of write transactions per sample period (Count)
system.monitor.writeTransHist::total               77                       # Histogram of write transactions per sample period (Count)
system.tollcbus.transDist::ReadResp            785767                       # Transaction distribution (Count)
system.tollcbus.transDist::WritebackDirty      1004749                       # Transaction distribution (Count)
system.tollcbus.transDist::CleanEvict         1568530                       # Transaction distribution (Count)
system.tollcbus.transDist::UpgradeReq            4433                       # Transaction distribution (Count)
system.tollcbus.transDist::SCUpgradeReq            43                       # Transaction distribution (Count)
system.tollcbus.transDist::UpgradeResp           4476                       # Transaction distribution (Count)
system.tollcbus.transDist::ReadExReq           529825                       # Transaction distribution (Count)
system.tollcbus.transDist::ReadExResp          529825                       # Transaction distribution (Count)
system.tollcbus.transDist::ReadSharedReq       785767                       # Transaction distribution (Count)
system.tollcbus.transDist::InvalidateReq           57                       # Transaction distribution (Count)
system.tollcbus.transDist::InvalidateResp           57                       # Transaction distribution (Count)
system.tollcbus.pktCount_system.cpu0.l2cache.mem_side_port::system.monitor-cpu_side_port      1929371                       # Packet count per connected requestor and responder (Count)
system.tollcbus.pktCount_system.cpu1.l2cache.mem_side_port::system.monitor-cpu_side_port      1920439                       # Packet count per connected requestor and responder (Count)
system.tollcbus.pktCount::total               3849810                       # Packet count per connected requestor and responder (Count)
system.tollcbus.pktSize_system.cpu0.l2cache.mem_side_port::system.monitor-cpu_side_port     58705344                       # Cumulative packet size per connected requestor and responder (Byte)
system.tollcbus.pktSize_system.cpu1.l2cache.mem_side_port::system.monitor-cpu_side_port     58419840                       # Cumulative packet size per connected requestor and responder (Byte)
system.tollcbus.pktSize::total              117125184                       # Cumulative packet size per connected requestor and responder (Byte)
system.tollcbus.snoops                        1363719                       # Total snoops (Count)
system.tollcbus.snoopTraffic                 31376640                       # Total snoop traffic (Byte)
system.tollcbus.snoopFanout::samples          2650989                       # Request fanout histogram (Count)
system.tollcbus.snoopFanout::mean            0.155388                       # Request fanout histogram (Count)
system.tollcbus.snoopFanout::stdev           0.368100                       # Request fanout histogram (Count)
system.tollcbus.snoopFanout::underflows             0      0.00%      0.00% # Request fanout histogram (Count)
system.tollcbus.snoopFanout::0                2244696     84.67%     84.67% # Request fanout histogram (Count)
system.tollcbus.snoopFanout::1                 400653     15.11%     99.79% # Request fanout histogram (Count)
system.tollcbus.snoopFanout::2                   5640      0.21%    100.00% # Request fanout histogram (Count)
system.tollcbus.snoopFanout::overflows              0      0.00%    100.00% # Request fanout histogram (Count)
system.tollcbus.snoopFanout::min_value              0                       # Request fanout histogram (Count)
system.tollcbus.snoopFanout::max_value              2                       # Request fanout histogram (Count)
system.tollcbus.snoopFanout::total            2650989                       # Request fanout histogram (Count)
system.tollcbus.power_state.pwrStateResidencyTicks::UNDEFINED  77263317009                       # Cumulative time (in ticks) in various power states (Tick)
system.tollcbus.reqLayer0.occupancy        1215146300                       # Layer occupancy (ticks) (Tick)
system.tollcbus.reqLayer0.utilization             0.0                       # Layer utilization (Ratio)
system.tollcbus.respLayer0.occupancy        658548277                       # Layer occupancy (ticks) (Tick)
system.tollcbus.respLayer0.utilization            0.0                       # Layer utilization (Ratio)
system.tollcbus.respLayer1.occupancy        657355153                       # Layer occupancy (ticks) (Tick)
system.tollcbus.respLayer1.utilization            0.0                       # Layer utilization (Ratio)
system.tollcbus.snoop_filter.totRequests      2562540                       # Total number of requests made to the snoop filter. (Count)
system.tollcbus.snoop_filter.hitSingleRequests      1246733                       # Number of requests hitting in the snoop filter with a single holder of the requested data. (Count)
system.tollcbus.snoop_filter.hitMultiRequests        32001                       # Number of requests hitting in the snoop filter with multiple (>1) holders of the requested data. (Count)
system.tollcbus.snoop_filter.totSnoops         369980                       # Total number of snoops made to the snoop filter. (Count)
system.tollcbus.snoop_filter.hitSingleSnoops       364340                       # Number of snoops hitting in the snoop filter with a single holder of the requested data. (Count)
system.tollcbus.snoop_filter.hitMultiSnoops         5640                       # Number of snoops hitting in the snoop filter with multiple (>1) holders of the requested data. (Count)
system.voltage_domain.voltage                       1                       # Voltage in Volts (Volt)
system.workload.inst.arm                            0                       # number of arm instructions executed (Count)
system.workload.inst.quiesce                        0                       # number of quiesce instructions executed (Count)

---------- End Simulation Statistics   ----------
