
---------- Begin Simulation Statistics ----------
simSeconds                                   0.247463                       # Number of seconds simulated (Second)
simTicks                                 247463493795                       # Number of ticks simulated (Tick)
finalTick                                247463493795                       # Number of ticks from beginning of simulation (restored from checkpoints and never reset) (Tick)
simFreq                                  1000000000000                       # The number of ticks per simulated second ((Tick/Second))
hostSeconds                                   5907.24                       # Real time elapsed on the host (Second)
hostTickRate                                 41891579                       # The number of ticks simulated per host second (ticks/s) ((Tick/Second))
hostMemory                                     760220                       # Number of bytes of host memory used (Byte)
simInsts                                   1150780887                       # Number of instructions simulated (Count)
simOps                                     1773383562                       # Number of ops (including micro ops) simulated (Count)
hostInstRate                                   194809                       # Simulator instruction rate (inst/s) ((Count/Second))
hostOpRate                                     300205                       # Simulator op (including micro ops) rate (op/s) ((Count/Second))
system.clk_domain.clock                          1000                       # Clock period in ticks (Tick)
system.cpu0.numCycles                       607569152                       # Number of cpu cycles simulated (Cycle)
system.cpu0.numWorkItemsStarted                     0                       # Number of work items this cpu started (Count)
system.cpu0.numWorkItemsCompleted                   0                       # Number of work items this cpu completed (Count)
system.cpu0.instsAdded                     1116171560                       # Number of instructions added to the IQ (excludes non-spec) (Count)
system.cpu0.nonSpecInstsAdded                   33852                       # Number of non-speculative instructions added to the IQ (Count)
system.cpu0.instsIssued                    1103595544                       # Number of instructions issued (Count)
system.cpu0.squashedInstsIssued                 95863                       # Number of squashed instructions issued (Count)
system.cpu0.squashedInstsExamined            44270459                       # Number of squashed instructions iterated over during squash; mainly for profiling (Count)
system.cpu0.squashedOperandsExamined         75697982                       # Number of squashed operands that are examined and possibly removed from graph (Count)
system.cpu0.squashedNonSpecRemoved              11985                       # Number of squashed non-spec instructions that were removed (Count)
system.cpu0.numIssuedDist::samples          607230327                       # Number of insts issued each cycle (Count)
system.cpu0.numIssuedDist::mean              1.817425                       # Number of insts issued each cycle (Count)
system.cpu0.numIssuedDist::stdev             2.416450                       # Number of insts issued each cycle (Count)
system.cpu0.numIssuedDist::underflows               0      0.00%      0.00% # Number of insts issued each cycle (Count)
system.cpu0.numIssuedDist::0                325835826     53.66%     53.66% # Number of insts issued each cycle (Count)
system.cpu0.numIssuedDist::1                 40984174      6.75%     60.41% # Number of insts issued each cycle (Count)
system.cpu0.numIssuedDist::2                 41776953      6.88%     67.29% # Number of insts issued each cycle (Count)
system.cpu0.numIssuedDist::3                 54262913      8.94%     76.22% # Number of insts issued each cycle (Count)
system.cpu0.numIssuedDist::4                 33849849      5.57%     81.80% # Number of insts issued each cycle (Count)
system.cpu0.numIssuedDist::5                 35462307      5.84%     87.64% # Number of insts issued each cycle (Count)
system.cpu0.numIssuedDist::6                 38372691      6.32%     93.96% # Number of insts issued each cycle (Count)
system.cpu0.numIssuedDist::7                 20163264      3.32%     97.28% # Number of insts issued each cycle (Count)
system.cpu0.numIssuedDist::8                 16522350      2.72%    100.00% # Number of insts issued each cycle (Count)
system.cpu0.numIssuedDist::overflows                0      0.00%    100.00% # Number of insts issued each cycle (Count)
system.cpu0.numIssuedDist::min_value                0                       # Number of insts issued each cycle (Count)
system.cpu0.numIssuedDist::max_value                8                       # Number of insts issued each cycle (Count)
system.cpu0.numIssuedDist::total            607230327                       # Number of insts issued each cycle (Count)
system.cpu0.statFuBusy::No_OpClass                  0      0.00%      0.00% # attempts to use FU when none available (Count)
system.cpu0.statFuBusy::IntAlu                6075932     83.68%     83.68% # attempts to use FU when none available (Count)
system.cpu0.statFuBusy::IntMult                     0      0.00%     83.68% # attempts to use FU when none available (Count)
system.cpu0.statFuBusy::IntDiv                      0      0.00%     83.68% # attempts to use FU when none available (Count)
system.cpu0.statFuBusy::FloatAdd                    0      0.00%     83.68% # attempts to use FU when none available (Count)
system.cpu0.statFuBusy::FloatCmp                    0      0.00%     83.68% # attempts to use FU when none available (Count)
system.cpu0.statFuBusy::FloatCvt                    0      0.00%     83.68% # attempts to use FU when none available (Count)
system.cpu0.statFuBusy::FloatMult                   0      0.00%     83.68% # attempts to use FU when none available (Count)
system.cpu0.statFuBusy::FloatMultAcc                0      0.00%     83.68% # attempts to use FU when none available (Count)
system.cpu0.statFuBusy::FloatDiv                    0      0.00%     83.68% # attempts to use FU when none available (Count)
system.cpu0.statFuBusy::FloatMisc                   0      0.00%     83.68% # attempts to use FU when none available (Count)
system.cpu0.statFuBusy::FloatSqrt                   0      0.00%     83.68% # attempts to use FU when none available (Count)
system.cpu0.statFuBusy::SimdAdd                     0      0.00%     83.68% # attempts to use FU when none available (Count)
system.cpu0.statFuBusy::SimdAddAcc                  0      0.00%     83.68% # attempts to use FU when none available (Count)
system.cpu0.statFuBusy::SimdAlu                  6808      0.09%     83.78% # attempts to use FU when none available (Count)
system.cpu0.statFuBusy::SimdCmp                     0      0.00%     83.78% # attempts to use FU when none available (Count)
system.cpu0.statFuBusy::SimdCvt                 20475      0.28%     84.06% # attempts to use FU when none available (Count)
system.cpu0.statFuBusy::SimdMisc                 1819      0.03%     84.09% # attempts to use FU when none available (Count)
system.cpu0.statFuBusy::SimdMult                    0      0.00%     84.09% # attempts to use FU when none available (Count)
system.cpu0.statFuBusy::SimdMultAcc                 0      0.00%     84.09% # attempts to use FU when none available (Count)
system.cpu0.statFuBusy::SimdShift                   0      0.00%     84.09% # attempts to use FU when none available (Count)
system.cpu0.statFuBusy::SimdShiftAcc                0      0.00%     84.09% # attempts to use FU when none available (Count)
system.cpu0.statFuBusy::SimdDiv                     0      0.00%     84.09% # attempts to use FU when none available (Count)
system.cpu0.statFuBusy::SimdSqrt                    0      0.00%     84.09% # attempts to use FU when none available (Count)
system.cpu0.statFuBusy::SimdFloatAdd               71      0.00%     84.09% # attempts to use FU when none available (Count)
system.cpu0.statFuBusy::SimdFloatAlu                0      0.00%     84.09% # attempts to use FU when none available (Count)
system.cpu0.statFuBusy::SimdFloatCmp                0      0.00%     84.09% # attempts to use FU when none available (Count)
system.cpu0.statFuBusy::SimdFloatCvt                0      0.00%     84.09% # attempts to use FU when none available (Count)
system.cpu0.statFuBusy::SimdFloatDiv                5      0.00%     84.09% # attempts to use FU when none available (Count)
system.cpu0.statFuBusy::SimdFloatMisc               0      0.00%     84.09% # attempts to use FU when none available (Count)
system.cpu0.statFuBusy::SimdFloatMult          203882      2.81%     86.89% # attempts to use FU when none available (Count)
system.cpu0.statFuBusy::SimdFloatMultAcc            0      0.00%     86.89% # attempts to use FU when none available (Count)
system.cpu0.statFuBusy::SimdFloatSqrt               0      0.00%     86.89% # attempts to use FU when none available (Count)
system.cpu0.statFuBusy::SimdReduceAdd               0      0.00%     86.89% # attempts to use FU when none available (Count)
system.cpu0.statFuBusy::SimdReduceAlu               0      0.00%     86.89% # attempts to use FU when none available (Count)
system.cpu0.statFuBusy::SimdReduceCmp               0      0.00%     86.89% # attempts to use FU when none available (Count)
system.cpu0.statFuBusy::SimdFloatReduceAdd            0      0.00%     86.89% # attempts to use FU when none available (Count)
system.cpu0.statFuBusy::SimdFloatReduceCmp            0      0.00%     86.89% # attempts to use FU when none available (Count)
system.cpu0.statFuBusy::SimdAes                     0      0.00%     86.89% # attempts to use FU when none available (Count)
system.cpu0.statFuBusy::SimdAesMix                  0      0.00%     86.89% # attempts to use FU when none available (Count)
system.cpu0.statFuBusy::SimdSha1Hash                0      0.00%     86.89% # attempts to use FU when none available (Count)
system.cpu0.statFuBusy::SimdSha1Hash2               0      0.00%     86.89% # attempts to use FU when none available (Count)
system.cpu0.statFuBusy::SimdSha256Hash              0      0.00%     86.89% # attempts to use FU when none available (Count)
system.cpu0.statFuBusy::SimdSha256Hash2             0      0.00%     86.89% # attempts to use FU when none available (Count)
system.cpu0.statFuBusy::SimdShaSigma2               0      0.00%     86.89% # attempts to use FU when none available (Count)
system.cpu0.statFuBusy::SimdShaSigma3               0      0.00%     86.89% # attempts to use FU when none available (Count)
system.cpu0.statFuBusy::SimdPredAlu                 0      0.00%     86.89% # attempts to use FU when none available (Count)
system.cpu0.statFuBusy::MemRead                529195      7.29%     94.18% # attempts to use FU when none available (Count)
system.cpu0.statFuBusy::MemWrite               134221      1.85%     96.03% # attempts to use FU when none available (Count)
system.cpu0.statFuBusy::FloatMemRead           216992      2.99%     99.02% # attempts to use FU when none available (Count)
system.cpu0.statFuBusy::FloatMemWrite           71108      0.98%    100.00% # attempts to use FU when none available (Count)
system.cpu0.statFuBusy::IprAccess                   0      0.00%    100.00% # attempts to use FU when none available (Count)
system.cpu0.statFuBusy::InstPrefetch                0      0.00%    100.00% # attempts to use FU when none available (Count)
system.cpu0.statIssuedInstType_0::No_OpClass      3743698      0.34%      0.34% # Number of instructions issued per FU type, per thread (Count)
system.cpu0.statIssuedInstType_0::IntAlu    586187171     53.12%     53.46% # Number of instructions issued per FU type, per thread (Count)
system.cpu0.statIssuedInstType_0::IntMult      2030928      0.18%     53.64% # Number of instructions issued per FU type, per thread (Count)
system.cpu0.statIssuedInstType_0::IntDiv       356097      0.03%     53.67% # Number of instructions issued per FU type, per thread (Count)
system.cpu0.statIssuedInstType_0::FloatAdd     84271258      7.64%     61.31% # Number of instructions issued per FU type, per thread (Count)
system.cpu0.statIssuedInstType_0::FloatCmp            0      0.00%     61.31% # Number of instructions issued per FU type, per thread (Count)
system.cpu0.statIssuedInstType_0::FloatCvt            0      0.00%     61.31% # Number of instructions issued per FU type, per thread (Count)
system.cpu0.statIssuedInstType_0::FloatMult            0      0.00%     61.31% # Number of instructions issued per FU type, per thread (Count)
system.cpu0.statIssuedInstType_0::FloatMultAcc            0      0.00%     61.31% # Number of instructions issued per FU type, per thread (Count)
system.cpu0.statIssuedInstType_0::FloatDiv            0      0.00%     61.31% # Number of instructions issued per FU type, per thread (Count)
system.cpu0.statIssuedInstType_0::FloatMisc            0      0.00%     61.31% # Number of instructions issued per FU type, per thread (Count)
system.cpu0.statIssuedInstType_0::FloatSqrt            0      0.00%     61.31% # Number of instructions issued per FU type, per thread (Count)
system.cpu0.statIssuedInstType_0::SimdAdd            0      0.00%     61.31% # Number of instructions issued per FU type, per thread (Count)
system.cpu0.statIssuedInstType_0::SimdAddAcc            0      0.00%     61.31% # Number of instructions issued per FU type, per thread (Count)
system.cpu0.statIssuedInstType_0::SimdAlu       592318      0.05%     61.36% # Number of instructions issued per FU type, per thread (Count)
system.cpu0.statIssuedInstType_0::SimdCmp            0      0.00%     61.36% # Number of instructions issued per FU type, per thread (Count)
system.cpu0.statIssuedInstType_0::SimdCvt       254792      0.02%     61.38% # Number of instructions issued per FU type, per thread (Count)
system.cpu0.statIssuedInstType_0::SimdMisc       608765      0.06%     61.44% # Number of instructions issued per FU type, per thread (Count)
system.cpu0.statIssuedInstType_0::SimdMult            0      0.00%     61.44% # Number of instructions issued per FU type, per thread (Count)
system.cpu0.statIssuedInstType_0::SimdMultAcc            0      0.00%     61.44% # Number of instructions issued per FU type, per thread (Count)
system.cpu0.statIssuedInstType_0::SimdShift            0      0.00%     61.44% # Number of instructions issued per FU type, per thread (Count)
system.cpu0.statIssuedInstType_0::SimdShiftAcc            0      0.00%     61.44% # Number of instructions issued per FU type, per thread (Count)
system.cpu0.statIssuedInstType_0::SimdDiv            0      0.00%     61.44% # Number of instructions issued per FU type, per thread (Count)
system.cpu0.statIssuedInstType_0::SimdSqrt            0      0.00%     61.44% # Number of instructions issued per FU type, per thread (Count)
system.cpu0.statIssuedInstType_0::SimdFloatAdd    103087232      9.34%     70.78% # Number of instructions issued per FU type, per thread (Count)
system.cpu0.statIssuedInstType_0::SimdFloatAlu            0      0.00%     70.78% # Number of instructions issued per FU type, per thread (Count)
system.cpu0.statIssuedInstType_0::SimdFloatCmp            2      0.00%     70.78% # Number of instructions issued per FU type, per thread (Count)
system.cpu0.statIssuedInstType_0::SimdFloatCvt       300411      0.03%     70.81% # Number of instructions issued per FU type, per thread (Count)
system.cpu0.statIssuedInstType_0::SimdFloatDiv       143450      0.01%     70.82% # Number of instructions issued per FU type, per thread (Count)
system.cpu0.statIssuedInstType_0::SimdFloatMisc            0      0.00%     70.82% # Number of instructions issued per FU type, per thread (Count)
system.cpu0.statIssuedInstType_0::SimdFloatMult    101467027      9.19%     80.02% # Number of instructions issued per FU type, per thread (Count)
system.cpu0.statIssuedInstType_0::SimdFloatMultAcc            0      0.00%     80.02% # Number of instructions issued per FU type, per thread (Count)
system.cpu0.statIssuedInstType_0::SimdFloatSqrt         6471      0.00%     80.02% # Number of instructions issued per FU type, per thread (Count)
system.cpu0.statIssuedInstType_0::SimdReduceAdd            0      0.00%     80.02% # Number of instructions issued per FU type, per thread (Count)
system.cpu0.statIssuedInstType_0::SimdReduceAlu            0      0.00%     80.02% # Number of instructions issued per FU type, per thread (Count)
system.cpu0.statIssuedInstType_0::SimdReduceCmp            0      0.00%     80.02% # Number of instructions issued per FU type, per thread (Count)
system.cpu0.statIssuedInstType_0::SimdFloatReduceAdd            0      0.00%     80.02% # Number of instructions issued per FU type, per thread (Count)
system.cpu0.statIssuedInstType_0::SimdFloatReduceCmp            0      0.00%     80.02% # Number of instructions issued per FU type, per thread (Count)
system.cpu0.statIssuedInstType_0::SimdAes            0      0.00%     80.02% # Number of instructions issued per FU type, per thread (Count)
system.cpu0.statIssuedInstType_0::SimdAesMix            0      0.00%     80.02% # Number of instructions issued per FU type, per thread (Count)
system.cpu0.statIssuedInstType_0::SimdSha1Hash            0      0.00%     80.02% # Number of instructions issued per FU type, per thread (Count)
system.cpu0.statIssuedInstType_0::SimdSha1Hash2            0      0.00%     80.02% # Number of instructions issued per FU type, per thread (Count)
system.cpu0.statIssuedInstType_0::SimdSha256Hash            0      0.00%     80.02% # Number of instructions issued per FU type, per thread (Count)
system.cpu0.statIssuedInstType_0::SimdSha256Hash2            0      0.00%     80.02% # Number of instructions issued per FU type, per thread (Count)
system.cpu0.statIssuedInstType_0::SimdShaSigma2            0      0.00%     80.02% # Number of instructions issued per FU type, per thread (Count)
system.cpu0.statIssuedInstType_0::SimdShaSigma3            0      0.00%     80.02% # Number of instructions issued per FU type, per thread (Count)
system.cpu0.statIssuedInstType_0::SimdPredAlu            0      0.00%     80.02% # Number of instructions issued per FU type, per thread (Count)
system.cpu0.statIssuedInstType_0::MemRead     71508479      6.48%     86.50% # Number of instructions issued per FU type, per thread (Count)
system.cpu0.statIssuedInstType_0::MemWrite     28653907      2.60%     89.09% # Number of instructions issued per FU type, per thread (Count)
system.cpu0.statIssuedInstType_0::FloatMemRead     92747593      8.40%     97.50% # Number of instructions issued per FU type, per thread (Count)
system.cpu0.statIssuedInstType_0::FloatMemWrite     27635945      2.50%    100.00% # Number of instructions issued per FU type, per thread (Count)
system.cpu0.statIssuedInstType_0::IprAccess            0      0.00%    100.00% # Number of instructions issued per FU type, per thread (Count)
system.cpu0.statIssuedInstType_0::InstPrefetch            0      0.00%    100.00% # Number of instructions issued per FU type, per thread (Count)
system.cpu0.statIssuedInstType_0::total    1103595544                       # Number of instructions issued per FU type, per thread (Count)
system.cpu0.issueRate                        1.816411                       # Inst issue rate ((Count/Cycle))
system.cpu0.fuBusy                            7260508                       # FU busy when requested (Count)
system.cpu0.fuBusyRate                       0.006579                       # FU busy rate (busy events/executed inst) ((Count/Count))
system.cpu0.intInstQueueReads              1805479690                       # Number of integer instruction queue reads (Count)
system.cpu0.intInstQueueWrites              650906359                       # Number of integer instruction queue writes (Count)
system.cpu0.intInstQueueWakeupAccesses      592926196                       # Number of integer instruction queue wakeup accesses (Count)
system.cpu0.fpInstQueueReads               1016298096                       # Number of floating instruction queue reads (Count)
system.cpu0.fpInstQueueWrites               509590699                       # Number of floating instruction queue writes (Count)
system.cpu0.fpInstQueueWakeupAccesses       506239516                       # Number of floating instruction queue wakeup accesses (Count)
system.cpu0.vecInstQueueReads                       0                       # Number of vector instruction queue reads (Count)
system.cpu0.vecInstQueueWrites                      0                       # Number of vector instruction queue writes (Count)
system.cpu0.vecInstQueueWakeupAccesses              0                       # Number of vector instruction queue wakeup accesses (Count)
system.cpu0.intAluAccesses                  598195056                       # Number of integer alu accesses (Count)
system.cpu0.fpAluAccesses                   508917298                       # Number of floating point alu accesses (Count)
system.cpu0.vecAluAccesses                          0                       # Number of vector alu accesses (Count)
system.cpu0.numInsts                       1101485605                       # Number of executed instructions (Count)
system.cpu0.numLoadInsts                    163761676                       # Number of load instructions executed (Count)
system.cpu0.numSquashedInsts                  2109939                       # Number of squashed instructions skipped in execute (Count)
system.cpu0.numSwp                                  0                       # Number of swp insts executed (Count)
system.cpu0.numNop                                  0                       # Number of nop insts executed (Count)
system.cpu0.numRefs                         219950816                       # Number of memory reference insts executed (Count)
system.cpu0.numBranches                      67105128                       # Number of branches executed (Count)
system.cpu0.numStoreInsts                    56189140                       # Number of stores executed (Count)
system.cpu0.numRate                          1.812939                       # Inst execution rate ((Count/Cycle))
system.cpu0.timesIdled                           1905                       # Number of times that the entire CPU went into an idle state and unscheduled itself (Count)
system.cpu0.idleCycles                         338825                       # Total number of cycles that the CPU has spent unscheduled due to idling (Cycle)
system.cpu0.quiesceCycles                   135564464                       # Total number of cycles that CPU has spent quiesced or waiting for an interrupt (Cycle)
system.cpu0.committedInsts                  679737021                       # Number of Instructions Simulated (Count)
system.cpu0.committedOps                   1071934947                       # Number of Ops (including micro ops) Simulated (Count)
system.cpu0.cpi                              0.893830                       # CPI: Cycles Per Instruction ((Cycle/Count))
system.cpu0.totalCpi                         0.893830                       # CPI: Total CPI of All Threads ((Cycle/Count))
system.cpu0.ipc                              1.118781                       # IPC: Instructions Per Cycle ((Count/Cycle))
system.cpu0.totalIpc                         1.118781                       # IPC: Total IPC of All Threads ((Count/Cycle))
system.cpu0.intRegfileReads                 909969531                       # Number of integer regfile reads (Count)
system.cpu0.intRegfileWrites                433633173                       # Number of integer regfile writes (Count)
system.cpu0.fpRegfileReads                  837548036                       # Number of floating regfile reads (Count)
system.cpu0.fpRegfileWrites                 478375142                       # Number of floating regfile writes (Count)
system.cpu0.ccRegfileReads                  328372288                       # number of cc regfile reads (Count)
system.cpu0.ccRegfileWrites                 266512306                       # number of cc regfile writes (Count)
system.cpu0.miscRegfileReads                368385462                       # number of misc regfile reads (Count)
system.cpu0.MemDepUnit__0.insertedLoads     166620775                       # Number of loads inserted to the mem dependence unit. (Count)
system.cpu0.MemDepUnit__0.insertedStores     58107735                       # Number of stores inserted to the mem dependence unit. (Count)
system.cpu0.MemDepUnit__0.conflictingLoads     28687226                       # Number of conflicting loads. (Count)
system.cpu0.MemDepUnit__0.conflictingStores     20710498                       # Number of conflicting stores. (Count)
system.cpu0.MemDepUnit__1.insertedLoads             0                       # Number of loads inserted to the mem dependence unit. (Count)
system.cpu0.MemDepUnit__1.insertedStores            0                       # Number of stores inserted to the mem dependence unit. (Count)
system.cpu0.MemDepUnit__1.conflictingLoads            0                       # Number of conflicting loads. (Count)
system.cpu0.MemDepUnit__1.conflictingStores            0                       # Number of conflicting stores. (Count)
system.cpu0.MemDepUnit__2.insertedLoads             0                       # Number of loads inserted to the mem dependence unit. (Count)
system.cpu0.MemDepUnit__2.insertedStores            0                       # Number of stores inserted to the mem dependence unit. (Count)
system.cpu0.MemDepUnit__2.conflictingLoads            0                       # Number of conflicting loads. (Count)
system.cpu0.MemDepUnit__2.conflictingStores            0                       # Number of conflicting stores. (Count)
system.cpu0.MemDepUnit__3.insertedLoads             0                       # Number of loads inserted to the mem dependence unit. (Count)
system.cpu0.MemDepUnit__3.insertedStores            0                       # Number of stores inserted to the mem dependence unit. (Count)
system.cpu0.MemDepUnit__3.conflictingLoads            0                       # Number of conflicting loads. (Count)
system.cpu0.MemDepUnit__3.conflictingStores            0                       # Number of conflicting stores. (Count)
system.cpu0.branchPred.lookups               72810714                       # Number of BP lookups (Count)
system.cpu0.branchPred.condPredicted         67707081                       # Number of conditional branches predicted (Count)
system.cpu0.branchPred.condIncorrect           903022                       # Number of conditional branches incorrect (Count)
system.cpu0.branchPred.BTBLookups            48258407                       # Number of BTB lookups (Count)
system.cpu0.branchPred.BTBHits               48243040                       # Number of BTB hits (Count)
system.cpu0.branchPred.BTBHitRatio           0.999682                       # BTB Hit Ratio (Ratio)
system.cpu0.branchPred.RASUsed                1655165                       # Number of times the RAS was used to get a target. (Count)
system.cpu0.branchPred.RASIncorrect               129                       # Number of incorrect RAS predictions. (Count)
system.cpu0.branchPred.indirectLookups          46614                       # Number of indirect predictor lookups. (Count)
system.cpu0.branchPred.indirectHits             43839                       # Number of indirect target hits. (Count)
system.cpu0.branchPred.indirectMisses            2775                       # Number of indirect misses. (Count)
system.cpu0.branchPred.indirectMispredicted          381                       # Number of mispredicted indirect branches. (Count)
system.cpu0.commit.commitSquashedInsts       44266930                       # The number of squashed insts skipped by commit (Count)
system.cpu0.commit.commitNonSpecStalls          21867                       # The number of times commit has been forced to stall to communicate backwards (Count)
system.cpu0.commit.branchMispredicts           882586                       # The number of times a branch was mispredicted (Count)
system.cpu0.commit.numCommittedDist::samples    601152637                       # Number of insts commited each cycle (Count)
system.cpu0.commit.numCommittedDist::mean     1.783133                       # Number of insts commited each cycle (Count)
system.cpu0.commit.numCommittedDist::stdev     2.867144                       # Number of insts commited each cycle (Count)
system.cpu0.commit.numCommittedDist::underflows            0      0.00%      0.00% # Number of insts commited each cycle (Count)
system.cpu0.commit.numCommittedDist::0      380394960     63.28%     63.28% # Number of insts commited each cycle (Count)
system.cpu0.commit.numCommittedDist::1       29034003      4.83%     68.11% # Number of insts commited each cycle (Count)
system.cpu0.commit.numCommittedDist::2       34514655      5.74%     73.85% # Number of insts commited each cycle (Count)
system.cpu0.commit.numCommittedDist::3       32242122      5.36%     79.21% # Number of insts commited each cycle (Count)
system.cpu0.commit.numCommittedDist::4       11494314      1.91%     81.12% # Number of insts commited each cycle (Count)
system.cpu0.commit.numCommittedDist::5       10057623      1.67%     82.80% # Number of insts commited each cycle (Count)
system.cpu0.commit.numCommittedDist::6       19302057      3.21%     86.01% # Number of insts commited each cycle (Count)
system.cpu0.commit.numCommittedDist::7        7835669      1.30%     87.31% # Number of insts commited each cycle (Count)
system.cpu0.commit.numCommittedDist::8       76277234     12.69%    100.00% # Number of insts commited each cycle (Count)
system.cpu0.commit.numCommittedDist::overflows            0      0.00%    100.00% # Number of insts commited each cycle (Count)
system.cpu0.commit.numCommittedDist::min_value            0                       # Number of insts commited each cycle (Count)
system.cpu0.commit.numCommittedDist::max_value            8                       # Number of insts commited each cycle (Count)
system.cpu0.commit.numCommittedDist::total    601152637                       # Number of insts commited each cycle (Count)
system.cpu0.commit.instsCommitted           679737021                       # Number of instructions committed (Count)
system.cpu0.commit.opsCommitted            1071934947                       # Number of ops (including micro ops) committed (Count)
system.cpu0.commit.memRefs                  213690818                       # Number of memory references committed (Count)
system.cpu0.commit.loads                    158383614                       # Number of loads committed (Count)
system.cpu0.commit.amos                             0                       # Number of atomic instructions committed (Count)
system.cpu0.commit.membars                      14578                       # Number of memory barriers committed (Count)
system.cpu0.commit.branches                  64613331                       # Number of branches committed (Count)
system.cpu0.commit.vectorInstructions               0                       # Number of committed Vector instructions. (Count)
system.cpu0.commit.floating                 505432937                       # Number of committed floating point instructions. (Count)
system.cpu0.commit.integer                  682685804                       # Number of committed integer instructions. (Count)
system.cpu0.commit.functionCalls              1551520                       # Number of function calls committed. (Count)
system.cpu0.commit.committedInstType_0::No_OpClass      3486926      0.33%      0.33% # Class of committed instruction (Count)
system.cpu0.commit.committedInstType_0::IntAlu    562361592     52.46%     52.79% # Class of committed instruction (Count)
system.cpu0.commit.committedInstType_0::IntMult      2010913      0.19%     52.98% # Class of committed instruction (Count)
system.cpu0.commit.committedInstType_0::IntDiv       354631      0.03%     53.01% # Class of committed instruction (Count)
system.cpu0.commit.committedInstType_0::FloatAdd     83656354      7.80%     60.81% # Class of committed instruction (Count)
system.cpu0.commit.committedInstType_0::FloatCmp            0      0.00%     60.81% # Class of committed instruction (Count)
system.cpu0.commit.committedInstType_0::FloatCvt            0      0.00%     60.81% # Class of committed instruction (Count)
system.cpu0.commit.committedInstType_0::FloatMult            0      0.00%     60.81% # Class of committed instruction (Count)
system.cpu0.commit.committedInstType_0::FloatMultAcc            0      0.00%     60.81% # Class of committed instruction (Count)
system.cpu0.commit.committedInstType_0::FloatDiv            0      0.00%     60.81% # Class of committed instruction (Count)
system.cpu0.commit.committedInstType_0::FloatMisc            0      0.00%     60.81% # Class of committed instruction (Count)
system.cpu0.commit.committedInstType_0::FloatSqrt            0      0.00%     60.81% # Class of committed instruction (Count)
system.cpu0.commit.committedInstType_0::SimdAdd            0      0.00%     60.81% # Class of committed instruction (Count)
system.cpu0.commit.committedInstType_0::SimdAddAcc            0      0.00%     60.81% # Class of committed instruction (Count)
system.cpu0.commit.committedInstType_0::SimdAlu       569152      0.05%     60.87% # Class of committed instruction (Count)
system.cpu0.commit.committedInstType_0::SimdCmp            0      0.00%     60.87% # Class of committed instruction (Count)
system.cpu0.commit.committedInstType_0::SimdCvt       251286      0.02%     60.89% # Class of committed instruction (Count)
system.cpu0.commit.committedInstType_0::SimdMisc       604883      0.06%     60.95% # Class of committed instruction (Count)
system.cpu0.commit.committedInstType_0::SimdMult            0      0.00%     60.95% # Class of committed instruction (Count)
system.cpu0.commit.committedInstType_0::SimdMultAcc            0      0.00%     60.95% # Class of committed instruction (Count)
system.cpu0.commit.committedInstType_0::SimdShift            0      0.00%     60.95% # Class of committed instruction (Count)
system.cpu0.commit.committedInstType_0::SimdShiftAcc            0      0.00%     60.95% # Class of committed instruction (Count)
system.cpu0.commit.committedInstType_0::SimdDiv            0      0.00%     60.95% # Class of committed instruction (Count)
system.cpu0.commit.committedInstType_0::SimdSqrt            0      0.00%     60.95% # Class of committed instruction (Count)
system.cpu0.commit.committedInstType_0::SimdFloatAdd    103067914      9.62%     70.56% # Class of committed instruction (Count)
system.cpu0.commit.committedInstType_0::SimdFloatAlu            0      0.00%     70.56% # Class of committed instruction (Count)
system.cpu0.commit.committedInstType_0::SimdFloatCmp            2      0.00%     70.56% # Class of committed instruction (Count)
system.cpu0.commit.committedInstType_0::SimdFloatCvt       296506      0.03%     70.59% # Class of committed instruction (Count)
system.cpu0.commit.committedInstType_0::SimdFloatDiv       141399      0.01%     70.60% # Class of committed instruction (Count)
system.cpu0.commit.committedInstType_0::SimdFloatMisc            0      0.00%     70.60% # Class of committed instruction (Count)
system.cpu0.commit.committedInstType_0::SimdFloatMult    101436204      9.46%     80.06% # Class of committed instruction (Count)
system.cpu0.commit.committedInstType_0::SimdFloatMultAcc            0      0.00%     80.06% # Class of committed instruction (Count)
system.cpu0.commit.committedInstType_0::SimdFloatSqrt         6367      0.00%     80.06% # Class of committed instruction (Count)
system.cpu0.commit.committedInstType_0::SimdReduceAdd            0      0.00%     80.06% # Class of committed instruction (Count)
system.cpu0.commit.committedInstType_0::SimdReduceAlu            0      0.00%     80.06% # Class of committed instruction (Count)
system.cpu0.commit.committedInstType_0::SimdReduceCmp            0      0.00%     80.06% # Class of committed instruction (Count)
system.cpu0.commit.committedInstType_0::SimdFloatReduceAdd            0      0.00%     80.06% # Class of committed instruction (Count)
system.cpu0.commit.committedInstType_0::SimdFloatReduceCmp            0      0.00%     80.06% # Class of committed instruction (Count)
system.cpu0.commit.committedInstType_0::SimdAes            0      0.00%     80.06% # Class of committed instruction (Count)
system.cpu0.commit.committedInstType_0::SimdAesMix            0      0.00%     80.06% # Class of committed instruction (Count)
system.cpu0.commit.committedInstType_0::SimdSha1Hash            0      0.00%     80.06% # Class of committed instruction (Count)
system.cpu0.commit.committedInstType_0::SimdSha1Hash2            0      0.00%     80.06% # Class of committed instruction (Count)
system.cpu0.commit.committedInstType_0::SimdSha256Hash            0      0.00%     80.06% # Class of committed instruction (Count)
system.cpu0.commit.committedInstType_0::SimdSha256Hash2            0      0.00%     80.06% # Class of committed instruction (Count)
system.cpu0.commit.committedInstType_0::SimdShaSigma2            0      0.00%     80.06% # Class of committed instruction (Count)
system.cpu0.commit.committedInstType_0::SimdShaSigma3            0      0.00%     80.06% # Class of committed instruction (Count)
system.cpu0.commit.committedInstType_0::SimdPredAlu            0      0.00%     80.06% # Class of committed instruction (Count)
system.cpu0.commit.committedInstType_0::MemRead     66622962      6.22%     86.28% # Class of committed instruction (Count)
system.cpu0.commit.committedInstType_0::MemWrite     27712784      2.59%     88.87% # Class of committed instruction (Count)
system.cpu0.commit.committedInstType_0::FloatMemRead     91760652      8.56%     97.43% # Class of committed instruction (Count)
system.cpu0.commit.committedInstType_0::FloatMemWrite     27594420      2.57%    100.00% # Class of committed instruction (Count)
system.cpu0.commit.committedInstType_0::IprAccess            0      0.00%    100.00% # Class of committed instruction (Count)
system.cpu0.commit.committedInstType_0::InstPrefetch            0      0.00%    100.00% # Class of committed instruction (Count)
system.cpu0.commit.committedInstType_0::total   1071934947                       # Class of committed instruction (Count)
system.cpu0.commit.commitEligibleSamples     76277234                       # number cycles where commit BW limit reached (Cycle)
system.cpu0.dcache.demandHits::cpu0.data    201158743                       # number of demand (read+write) hits (Count)
system.cpu0.dcache.demandHits::total        201158743                       # number of demand (read+write) hits (Count)
system.cpu0.dcache.overallHits::cpu0.data    201158743                       # number of overall hits (Count)
system.cpu0.dcache.overallHits::total       201158743                       # number of overall hits (Count)
system.cpu0.dcache.demandMisses::cpu0.data     10839979                       # number of demand (read+write) misses (Count)
system.cpu0.dcache.demandMisses::total       10839979                       # number of demand (read+write) misses (Count)
system.cpu0.dcache.overallMisses::cpu0.data     10839979                       # number of overall misses (Count)
system.cpu0.dcache.overallMisses::total      10839979                       # number of overall misses (Count)
system.cpu0.dcache.demandMissLatency::cpu0.data 505665735181                       # number of demand (read+write) miss ticks (Tick)
system.cpu0.dcache.demandMissLatency::total 505665735181                       # number of demand (read+write) miss ticks (Tick)
system.cpu0.dcache.overallMissLatency::cpu0.data 505665735181                       # number of overall miss ticks (Tick)
system.cpu0.dcache.overallMissLatency::total 505665735181                       # number of overall miss ticks (Tick)
system.cpu0.dcache.demandAccesses::cpu0.data    211998722                       # number of demand (read+write) accesses (Count)
system.cpu0.dcache.demandAccesses::total    211998722                       # number of demand (read+write) accesses (Count)
system.cpu0.dcache.overallAccesses::cpu0.data    211998722                       # number of overall (read+write) accesses (Count)
system.cpu0.dcache.overallAccesses::total    211998722                       # number of overall (read+write) accesses (Count)
system.cpu0.dcache.demandMissRate::cpu0.data     0.051132                       # miss rate for demand accesses (Ratio)
system.cpu0.dcache.demandMissRate::total     0.051132                       # miss rate for demand accesses (Ratio)
system.cpu0.dcache.overallMissRate::cpu0.data     0.051132                       # miss rate for overall accesses (Ratio)
system.cpu0.dcache.overallMissRate::total     0.051132                       # miss rate for overall accesses (Ratio)
system.cpu0.dcache.demandAvgMissLatency::cpu0.data 46648.220922                       # average overall miss latency in ticks ((Tick/Count))
system.cpu0.dcache.demandAvgMissLatency::total 46648.220922                       # average overall miss latency in ticks ((Tick/Count))
system.cpu0.dcache.overallAvgMissLatency::cpu0.data 46648.220922                       # average overall miss latency ((Tick/Count))
system.cpu0.dcache.overallAvgMissLatency::total 46648.220922                       # average overall miss latency ((Tick/Count))
system.cpu0.dcache.blockedCycles::no_mshrs      2018909                       # number of cycles access was blocked (Cycle)
system.cpu0.dcache.blockedCycles::no_targets          586                       # number of cycles access was blocked (Cycle)
system.cpu0.dcache.blockedCauses::no_mshrs       112754                       # number of times access was blocked (Count)
system.cpu0.dcache.blockedCauses::no_targets            6                       # number of times access was blocked (Count)
system.cpu0.dcache.avgBlocked::no_mshrs     17.905431                       # average number of cycles each access was blocked ((Cycle/Count))
system.cpu0.dcache.avgBlocked::no_targets    97.666667                       # average number of cycles each access was blocked ((Cycle/Count))
system.cpu0.dcache.writebacks::writebacks      3799812                       # number of writebacks (Count)
system.cpu0.dcache.writebacks::total          3799812                       # number of writebacks (Count)
system.cpu0.dcache.demandMshrHits::cpu0.data      5983733                       # number of demand (read+write) MSHR hits (Count)
system.cpu0.dcache.demandMshrHits::total      5983733                       # number of demand (read+write) MSHR hits (Count)
system.cpu0.dcache.overallMshrHits::cpu0.data      5983733                       # number of overall MSHR hits (Count)
system.cpu0.dcache.overallMshrHits::total      5983733                       # number of overall MSHR hits (Count)
system.cpu0.dcache.demandMshrMisses::cpu0.data      4856246                       # number of demand (read+write) MSHR misses (Count)
system.cpu0.dcache.demandMshrMisses::total      4856246                       # number of demand (read+write) MSHR misses (Count)
system.cpu0.dcache.overallMshrMisses::cpu0.data      4856246                       # number of overall MSHR misses (Count)
system.cpu0.dcache.overallMshrMisses::total      4856246                       # number of overall MSHR misses (Count)
system.cpu0.dcache.demandMshrMissLatency::cpu0.data 167868647407                       # number of demand (read+write) MSHR miss ticks (Tick)
system.cpu0.dcache.demandMshrMissLatency::total 167868647407                       # number of demand (read+write) MSHR miss ticks (Tick)
system.cpu0.dcache.overallMshrMissLatency::cpu0.data 167868647407                       # number of overall MSHR miss ticks (Tick)
system.cpu0.dcache.overallMshrMissLatency::total 167868647407                       # number of overall MSHR miss ticks (Tick)
system.cpu0.dcache.demandMshrMissRate::cpu0.data     0.022907                       # mshr miss ratio for demand accesses (Ratio)
system.cpu0.dcache.demandMshrMissRate::total     0.022907                       # mshr miss ratio for demand accesses (Ratio)
system.cpu0.dcache.overallMshrMissRate::cpu0.data     0.022907                       # mshr miss ratio for overall accesses (Ratio)
system.cpu0.dcache.overallMshrMissRate::total     0.022907                       # mshr miss ratio for overall accesses (Ratio)
system.cpu0.dcache.demandAvgMshrMissLatency::cpu0.data 34567.574914                       # average overall mshr miss latency ((Tick/Count))
system.cpu0.dcache.demandAvgMshrMissLatency::total 34567.574914                       # average overall mshr miss latency ((Tick/Count))
system.cpu0.dcache.overallAvgMshrMissLatency::cpu0.data 34567.574914                       # average overall mshr miss latency ((Tick/Count))
system.cpu0.dcache.overallAvgMshrMissLatency::total 34567.574914                       # average overall mshr miss latency ((Tick/Count))
system.cpu0.dcache.replacements               4797063                       # number of replacements (Count)
system.cpu0.dcache.LockedRMWReadReq.hits::cpu0.data         6963                       # number of LockedRMWReadReq hits (Count)
system.cpu0.dcache.LockedRMWReadReq.hits::total         6963                       # number of LockedRMWReadReq hits (Count)
system.cpu0.dcache.LockedRMWReadReq.misses::cpu0.data          326                       # number of LockedRMWReadReq misses (Count)
system.cpu0.dcache.LockedRMWReadReq.misses::total          326                       # number of LockedRMWReadReq misses (Count)
system.cpu0.dcache.LockedRMWReadReq.missLatency::cpu0.data      9434556                       # number of LockedRMWReadReq miss ticks (Tick)
system.cpu0.dcache.LockedRMWReadReq.missLatency::total      9434556                       # number of LockedRMWReadReq miss ticks (Tick)
system.cpu0.dcache.LockedRMWReadReq.accesses::cpu0.data         7289                       # number of LockedRMWReadReq accesses(hits+misses) (Count)
system.cpu0.dcache.LockedRMWReadReq.accesses::total         7289                       # number of LockedRMWReadReq accesses(hits+misses) (Count)
system.cpu0.dcache.LockedRMWReadReq.missRate::cpu0.data     0.044725                       # miss rate for LockedRMWReadReq accesses (Ratio)
system.cpu0.dcache.LockedRMWReadReq.missRate::total     0.044725                       # miss rate for LockedRMWReadReq accesses (Ratio)
system.cpu0.dcache.LockedRMWReadReq.avgMissLatency::cpu0.data 28940.355828                       # average LockedRMWReadReq miss latency ((Tick/Count))
system.cpu0.dcache.LockedRMWReadReq.avgMissLatency::total 28940.355828                       # average LockedRMWReadReq miss latency ((Tick/Count))
system.cpu0.dcache.LockedRMWReadReq.mshrMisses::cpu0.data          326                       # number of LockedRMWReadReq MSHR misses (Count)
system.cpu0.dcache.LockedRMWReadReq.mshrMisses::total          326                       # number of LockedRMWReadReq MSHR misses (Count)
system.cpu0.dcache.LockedRMWReadReq.mshrMissLatency::cpu0.data     36812151                       # number of LockedRMWReadReq MSHR miss ticks (Tick)
system.cpu0.dcache.LockedRMWReadReq.mshrMissLatency::total     36812151                       # number of LockedRMWReadReq MSHR miss ticks (Tick)
system.cpu0.dcache.LockedRMWReadReq.mshrMissRate::cpu0.data     0.044725                       # mshr miss rate for LockedRMWReadReq accesses (Ratio)
system.cpu0.dcache.LockedRMWReadReq.mshrMissRate::total     0.044725                       # mshr miss rate for LockedRMWReadReq accesses (Ratio)
system.cpu0.dcache.LockedRMWReadReq.avgMshrMissLatency::cpu0.data 112920.708589                       # average LockedRMWReadReq mshr miss latency ((Tick/Count))
system.cpu0.dcache.LockedRMWReadReq.avgMshrMissLatency::total 112920.708589                       # average LockedRMWReadReq mshr miss latency ((Tick/Count))
system.cpu0.dcache.LockedRMWWriteReq.hits::cpu0.data         7289                       # number of LockedRMWWriteReq hits (Count)
system.cpu0.dcache.LockedRMWWriteReq.hits::total         7289                       # number of LockedRMWWriteReq hits (Count)
system.cpu0.dcache.LockedRMWWriteReq.accesses::cpu0.data         7289                       # number of LockedRMWWriteReq accesses(hits+misses) (Count)
system.cpu0.dcache.LockedRMWWriteReq.accesses::total         7289                       # number of LockedRMWWriteReq accesses(hits+misses) (Count)
system.cpu0.dcache.ReadReq.hits::cpu0.data    146813716                       # number of ReadReq hits (Count)
system.cpu0.dcache.ReadReq.hits::total      146813716                       # number of ReadReq hits (Count)
system.cpu0.dcache.ReadReq.misses::cpu0.data      9864065                       # number of ReadReq misses (Count)
system.cpu0.dcache.ReadReq.misses::total      9864065                       # number of ReadReq misses (Count)
system.cpu0.dcache.ReadReq.missLatency::cpu0.data 439235831493                       # number of ReadReq miss ticks (Tick)
system.cpu0.dcache.ReadReq.missLatency::total 439235831493                       # number of ReadReq miss ticks (Tick)
system.cpu0.dcache.ReadReq.accesses::cpu0.data    156677781                       # number of ReadReq accesses(hits+misses) (Count)
system.cpu0.dcache.ReadReq.accesses::total    156677781                       # number of ReadReq accesses(hits+misses) (Count)
system.cpu0.dcache.ReadReq.missRate::cpu0.data     0.062958                       # miss rate for ReadReq accesses (Ratio)
system.cpu0.dcache.ReadReq.missRate::total     0.062958                       # miss rate for ReadReq accesses (Ratio)
system.cpu0.dcache.ReadReq.avgMissLatency::cpu0.data 44528.886569                       # average ReadReq miss latency ((Tick/Count))
system.cpu0.dcache.ReadReq.avgMissLatency::total 44528.886569                       # average ReadReq miss latency ((Tick/Count))
system.cpu0.dcache.ReadReq.mshrHits::cpu0.data      5983336                       # number of ReadReq MSHR hits (Count)
system.cpu0.dcache.ReadReq.mshrHits::total      5983336                       # number of ReadReq MSHR hits (Count)
system.cpu0.dcache.ReadReq.mshrMisses::cpu0.data      3880729                       # number of ReadReq MSHR misses (Count)
system.cpu0.dcache.ReadReq.mshrMisses::total      3880729                       # number of ReadReq MSHR misses (Count)
system.cpu0.dcache.ReadReq.mshrMissLatency::cpu0.data 102094089381                       # number of ReadReq MSHR miss ticks (Tick)
system.cpu0.dcache.ReadReq.mshrMissLatency::total 102094089381                       # number of ReadReq MSHR miss ticks (Tick)
system.cpu0.dcache.ReadReq.mshrMissRate::cpu0.data     0.024769                       # mshr miss rate for ReadReq accesses (Ratio)
system.cpu0.dcache.ReadReq.mshrMissRate::total     0.024769                       # mshr miss rate for ReadReq accesses (Ratio)
system.cpu0.dcache.ReadReq.avgMshrMissLatency::cpu0.data 26307.966720                       # average ReadReq mshr miss latency ((Tick/Count))
system.cpu0.dcache.ReadReq.avgMshrMissLatency::total 26307.966720                       # average ReadReq mshr miss latency ((Tick/Count))
system.cpu0.dcache.WriteReq.hits::cpu0.data     54345027                       # number of WriteReq hits (Count)
system.cpu0.dcache.WriteReq.hits::total      54345027                       # number of WriteReq hits (Count)
system.cpu0.dcache.WriteReq.misses::cpu0.data       975914                       # number of WriteReq misses (Count)
system.cpu0.dcache.WriteReq.misses::total       975914                       # number of WriteReq misses (Count)
system.cpu0.dcache.WriteReq.missLatency::cpu0.data  66429903688                       # number of WriteReq miss ticks (Tick)
system.cpu0.dcache.WriteReq.missLatency::total  66429903688                       # number of WriteReq miss ticks (Tick)
system.cpu0.dcache.WriteReq.accesses::cpu0.data     55320941                       # number of WriteReq accesses(hits+misses) (Count)
system.cpu0.dcache.WriteReq.accesses::total     55320941                       # number of WriteReq accesses(hits+misses) (Count)
system.cpu0.dcache.WriteReq.missRate::cpu0.data     0.017641                       # miss rate for WriteReq accesses (Ratio)
system.cpu0.dcache.WriteReq.missRate::total     0.017641                       # miss rate for WriteReq accesses (Ratio)
system.cpu0.dcache.WriteReq.avgMissLatency::cpu0.data 68069.423830                       # average WriteReq miss latency ((Tick/Count))
system.cpu0.dcache.WriteReq.avgMissLatency::total 68069.423830                       # average WriteReq miss latency ((Tick/Count))
system.cpu0.dcache.WriteReq.mshrHits::cpu0.data          397                       # number of WriteReq MSHR hits (Count)
system.cpu0.dcache.WriteReq.mshrHits::total          397                       # number of WriteReq MSHR hits (Count)
system.cpu0.dcache.WriteReq.mshrMisses::cpu0.data       975517                       # number of WriteReq MSHR misses (Count)
system.cpu0.dcache.WriteReq.mshrMisses::total       975517                       # number of WriteReq MSHR misses (Count)
system.cpu0.dcache.WriteReq.mshrMissLatency::cpu0.data  65774558026                       # number of WriteReq MSHR miss ticks (Tick)
system.cpu0.dcache.WriteReq.mshrMissLatency::total  65774558026                       # number of WriteReq MSHR miss ticks (Tick)
system.cpu0.dcache.WriteReq.mshrMissRate::cpu0.data     0.017634                       # mshr miss rate for WriteReq accesses (Ratio)
system.cpu0.dcache.WriteReq.mshrMissRate::total     0.017634                       # mshr miss rate for WriteReq accesses (Ratio)
system.cpu0.dcache.WriteReq.avgMshrMissLatency::cpu0.data 67425.332440                       # average WriteReq mshr miss latency ((Tick/Count))
system.cpu0.dcache.WriteReq.avgMshrMissLatency::total 67425.332440                       # average WriteReq mshr miss latency ((Tick/Count))
system.cpu0.dcache.power_state.pwrStateResidencyTicks::UNDEFINED 247463493795                       # Cumulative time (in ticks) in various power states (Tick)
system.cpu0.dcache.tags.tagsInUse          511.831097                       # Average ticks per tags in use ((Tick/Count))
system.cpu0.dcache.tags.totalRefs           206085522                       # Total number of references to valid blocks. (Count)
system.cpu0.dcache.tags.sampledRefs           4798319                       # Sample count of references to valid blocks. (Count)
system.cpu0.dcache.tags.avgRefs             42.949525                       # Average number of references to valid blocks. ((Count/Count))
system.cpu0.dcache.tags.warmupTick             187146                       # The tick when the warmup percentage was hit. (Tick)
system.cpu0.dcache.tags.occupancies::cpu0.data   511.831097                       # Average occupied blocks per tick, per requestor ((Count/Tick))
system.cpu0.dcache.tags.avgOccs::cpu0.data     0.999670                       # Average percentage of cache occupancy ((Ratio/Tick))
system.cpu0.dcache.tags.avgOccs::total       0.999670                       # Average percentage of cache occupancy ((Ratio/Tick))
system.cpu0.dcache.tags.occupanciesTaskId::1024          512                       # Occupied blocks per task id (Count)
system.cpu0.dcache.tags.ageTaskId_1024::0           31                       # Occupied blocks per task id, per block age (Count)
system.cpu0.dcache.tags.ageTaskId_1024::1          475                       # Occupied blocks per task id, per block age (Count)
system.cpu0.dcache.tags.ageTaskId_1024::2            6                       # Occupied blocks per task id, per block age (Count)
system.cpu0.dcache.tags.ratioOccsTaskId::1024            1                       # Ratio of occupied blocks and all blocks, per task id (Ratio)
system.cpu0.dcache.tags.tagAccesses        1700904719                       # Number of tag accesses (Count)
system.cpu0.dcache.tags.dataAccesses       1700904719                       # Number of data accesses (Count)
system.cpu0.dcache.tags.indexing_policy.setAccessHist::samples    226823560                       # Histogram of set associative cache access per set (Count)
system.cpu0.dcache.tags.indexing_policy.setAccessHist::mean    34.062009                       # Histogram of set associative cache access per set (Count)
system.cpu0.dcache.tags.indexing_policy.setAccessHist::gmean            0                       # Histogram of set associative cache access per set (Count)
system.cpu0.dcache.tags.indexing_policy.setAccessHist::stdev    18.296107                       # Histogram of set associative cache access per set (Count)
system.cpu0.dcache.tags.indexing_policy.setAccessHist::0      2984251      1.32%      1.32% # Histogram of set associative cache access per set (Count)
system.cpu0.dcache.tags.indexing_policy.setAccessHist::1      3029063      1.34%      2.65% # Histogram of set associative cache access per set (Count)
system.cpu0.dcache.tags.indexing_policy.setAccessHist::2      3119694      1.38%      4.03% # Histogram of set associative cache access per set (Count)
system.cpu0.dcache.tags.indexing_policy.setAccessHist::3      2923324      1.29%      5.32% # Histogram of set associative cache access per set (Count)
system.cpu0.dcache.tags.indexing_policy.setAccessHist::4      2909149      1.28%      6.60% # Histogram of set associative cache access per set (Count)
system.cpu0.dcache.tags.indexing_policy.setAccessHist::5      2931577      1.29%      7.89% # Histogram of set associative cache access per set (Count)
system.cpu0.dcache.tags.indexing_policy.setAccessHist::6      3080097      1.36%      9.25% # Histogram of set associative cache access per set (Count)
system.cpu0.dcache.tags.indexing_policy.setAccessHist::7      3027252      1.33%     10.58% # Histogram of set associative cache access per set (Count)
system.cpu0.dcache.tags.indexing_policy.setAccessHist::8      3019527      1.33%     11.91% # Histogram of set associative cache access per set (Count)
system.cpu0.dcache.tags.indexing_policy.setAccessHist::9      3013241      1.33%     13.24% # Histogram of set associative cache access per set (Count)
system.cpu0.dcache.tags.indexing_policy.setAccessHist::10      2990587      1.32%     14.56% # Histogram of set associative cache access per set (Count)
system.cpu0.dcache.tags.indexing_policy.setAccessHist::11      2946772      1.30%     15.86% # Histogram of set associative cache access per set (Count)
system.cpu0.dcache.tags.indexing_policy.setAccessHist::12      2913176      1.28%     17.14% # Histogram of set associative cache access per set (Count)
system.cpu0.dcache.tags.indexing_policy.setAccessHist::13      2925600      1.29%     18.43% # Histogram of set associative cache access per set (Count)
system.cpu0.dcache.tags.indexing_policy.setAccessHist::14      2887412      1.27%     19.71% # Histogram of set associative cache access per set (Count)
system.cpu0.dcache.tags.indexing_policy.setAccessHist::15      2858184      1.26%     20.97% # Histogram of set associative cache access per set (Count)
system.cpu0.dcache.tags.indexing_policy.setAccessHist::16      2867262      1.26%     22.23% # Histogram of set associative cache access per set (Count)
system.cpu0.dcache.tags.indexing_policy.setAccessHist::17      2864580      1.26%     23.49% # Histogram of set associative cache access per set (Count)
system.cpu0.dcache.tags.indexing_policy.setAccessHist::18      2858023      1.26%     24.75% # Histogram of set associative cache access per set (Count)
system.cpu0.dcache.tags.indexing_policy.setAccessHist::19      2840791      1.25%     26.01% # Histogram of set associative cache access per set (Count)
system.cpu0.dcache.tags.indexing_policy.setAccessHist::20      2799853      1.23%     27.24% # Histogram of set associative cache access per set (Count)
system.cpu0.dcache.tags.indexing_policy.setAccessHist::21      2813584      1.24%     28.48% # Histogram of set associative cache access per set (Count)
system.cpu0.dcache.tags.indexing_policy.setAccessHist::22      2798499      1.23%     29.72% # Histogram of set associative cache access per set (Count)
system.cpu0.dcache.tags.indexing_policy.setAccessHist::23      2810224      1.24%     30.95% # Histogram of set associative cache access per set (Count)
system.cpu0.dcache.tags.indexing_policy.setAccessHist::24      2781113      1.23%     32.18% # Histogram of set associative cache access per set (Count)
system.cpu0.dcache.tags.indexing_policy.setAccessHist::25      2824164      1.25%     33.43% # Histogram of set associative cache access per set (Count)
system.cpu0.dcache.tags.indexing_policy.setAccessHist::26      3015351      1.33%     34.75% # Histogram of set associative cache access per set (Count)
system.cpu0.dcache.tags.indexing_policy.setAccessHist::27      2816532      1.24%     36.00% # Histogram of set associative cache access per set (Count)
system.cpu0.dcache.tags.indexing_policy.setAccessHist::28      2812372      1.24%     37.24% # Histogram of set associative cache access per set (Count)
system.cpu0.dcache.tags.indexing_policy.setAccessHist::29      3355197      1.48%     38.72% # Histogram of set associative cache access per set (Count)
system.cpu0.dcache.tags.indexing_policy.setAccessHist::30      2803916      1.24%     39.95% # Histogram of set associative cache access per set (Count)
system.cpu0.dcache.tags.indexing_policy.setAccessHist::31      2684700      1.18%     41.14% # Histogram of set associative cache access per set (Count)
system.cpu0.dcache.tags.indexing_policy.setAccessHist::32      3082390      1.36%     42.49% # Histogram of set associative cache access per set (Count)
system.cpu0.dcache.tags.indexing_policy.setAccessHist::33      2723894      1.20%     43.70% # Histogram of set associative cache access per set (Count)
system.cpu0.dcache.tags.indexing_policy.setAccessHist::34      2927387      1.29%     44.99% # Histogram of set associative cache access per set (Count)
system.cpu0.dcache.tags.indexing_policy.setAccessHist::35      2737982      1.21%     46.19% # Histogram of set associative cache access per set (Count)
system.cpu0.dcache.tags.indexing_policy.setAccessHist::36      8342816      3.68%     49.87% # Histogram of set associative cache access per set (Count)
system.cpu0.dcache.tags.indexing_policy.setAccessHist::37      4069592      1.79%     51.67% # Histogram of set associative cache access per set (Count)
system.cpu0.dcache.tags.indexing_policy.setAccessHist::38      8953809      3.95%     55.61% # Histogram of set associative cache access per set (Count)
system.cpu0.dcache.tags.indexing_policy.setAccessHist::39      5170619      2.28%     57.89% # Histogram of set associative cache access per set (Count)
system.cpu0.dcache.tags.indexing_policy.setAccessHist::40      9264022      4.08%     61.98% # Histogram of set associative cache access per set (Count)
system.cpu0.dcache.tags.indexing_policy.setAccessHist::41      5084840      2.24%     64.22% # Histogram of set associative cache access per set (Count)
system.cpu0.dcache.tags.indexing_policy.setAccessHist::42      3333696      1.47%     65.69% # Histogram of set associative cache access per set (Count)
system.cpu0.dcache.tags.indexing_policy.setAccessHist::43      3638751      1.60%     67.29% # Histogram of set associative cache access per set (Count)
system.cpu0.dcache.tags.indexing_policy.setAccessHist::44      3984821      1.76%     69.05% # Histogram of set associative cache access per set (Count)
system.cpu0.dcache.tags.indexing_policy.setAccessHist::45      3076444      1.36%     70.41% # Histogram of set associative cache access per set (Count)
system.cpu0.dcache.tags.indexing_policy.setAccessHist::46      3790298      1.67%     72.08% # Histogram of set associative cache access per set (Count)
system.cpu0.dcache.tags.indexing_policy.setAccessHist::47      2828808      1.25%     73.32% # Histogram of set associative cache access per set (Count)
system.cpu0.dcache.tags.indexing_policy.setAccessHist::48      2953057      1.30%     74.63% # Histogram of set associative cache access per set (Count)
system.cpu0.dcache.tags.indexing_policy.setAccessHist::49      2958327      1.30%     75.93% # Histogram of set associative cache access per set (Count)
system.cpu0.dcache.tags.indexing_policy.setAccessHist::50      3044426      1.34%     77.27% # Histogram of set associative cache access per set (Count)
system.cpu0.dcache.tags.indexing_policy.setAccessHist::51      3144319      1.39%     78.66% # Histogram of set associative cache access per set (Count)
system.cpu0.dcache.tags.indexing_policy.setAccessHist::52      3183344      1.40%     80.06% # Histogram of set associative cache access per set (Count)
system.cpu0.dcache.tags.indexing_policy.setAccessHist::53      3176377      1.40%     81.46% # Histogram of set associative cache access per set (Count)
system.cpu0.dcache.tags.indexing_policy.setAccessHist::54      3130265      1.38%     82.84% # Histogram of set associative cache access per set (Count)
system.cpu0.dcache.tags.indexing_policy.setAccessHist::55      3057541      1.35%     84.19% # Histogram of set associative cache access per set (Count)
system.cpu0.dcache.tags.indexing_policy.setAccessHist::56      3653490      1.61%     85.80% # Histogram of set associative cache access per set (Count)
system.cpu0.dcache.tags.indexing_policy.setAccessHist::57      2984618      1.32%     87.12% # Histogram of set associative cache access per set (Count)
system.cpu0.dcache.tags.indexing_policy.setAccessHist::58      3170343      1.40%     88.51% # Histogram of set associative cache access per set (Count)
system.cpu0.dcache.tags.indexing_policy.setAccessHist::59      3199218      1.41%     89.92% # Histogram of set associative cache access per set (Count)
system.cpu0.dcache.tags.indexing_policy.setAccessHist::60      2982678      1.31%     91.24% # Histogram of set associative cache access per set (Count)
system.cpu0.dcache.tags.indexing_policy.setAccessHist::61     11412437      5.03%     96.27% # Histogram of set associative cache access per set (Count)
system.cpu0.dcache.tags.indexing_policy.setAccessHist::62      3272844      1.44%     97.71% # Histogram of set associative cache access per set (Count)
system.cpu0.dcache.tags.indexing_policy.setAccessHist::63      5185040      2.29%    100.00% # Histogram of set associative cache access per set (Count)
system.cpu0.dcache.tags.indexing_policy.setAccessHist::total    226823560                       # Histogram of set associative cache access per set (Count)
system.cpu0.dcache.tags.power_state.pwrStateResidencyTicks::UNDEFINED 247463493795                       # Cumulative time (in ticks) in various power states (Tick)
system.cpu0.decode.idleCycles                85105427                       # Number of cycles decode is idle (Cycle)
system.cpu0.decode.blockedCycles            350785371                       # Number of cycles decode is blocked (Cycle)
system.cpu0.decode.runCycles                150581969                       # Number of cycles decode is running (Cycle)
system.cpu0.decode.unblockCycles             19846766                       # Number of cycles decode is unblocking (Cycle)
system.cpu0.decode.squashCycles                910794                       # Number of cycles decode is squashing (Cycle)
system.cpu0.decode.branchResolved            47099560                       # Number of times decode resolved a branch (Count)
system.cpu0.decode.branchMispred                20956                       # Number of times decode detected a branch misprediction (Count)
system.cpu0.decode.decodedInsts            1128133714                       # Number of instructions handled by decode (Count)
system.cpu0.decode.squashedInsts                65928                       # Number of squashed instructions handled by decode (Count)
system.cpu0.dtb_walker_cache.blockedCycles::no_mshrs            0                       # number of cycles access was blocked (Cycle)
system.cpu0.dtb_walker_cache.blockedCycles::no_targets            0                       # number of cycles access was blocked (Cycle)
system.cpu0.dtb_walker_cache.blockedCauses::no_mshrs            0                       # number of times access was blocked (Count)
system.cpu0.dtb_walker_cache.blockedCauses::no_targets            0                       # number of times access was blocked (Count)
system.cpu0.dtb_walker_cache.avgBlocked::no_mshrs          nan                       # average number of cycles each access was blocked ((Cycle/Count))
system.cpu0.dtb_walker_cache.avgBlocked::no_targets          nan                       # average number of cycles each access was blocked ((Cycle/Count))
system.cpu0.dtb_walker_cache.replacements            0                       # number of replacements (Count)
system.cpu0.dtb_walker_cache.power_state.pwrStateResidencyTicks::UNDEFINED 247463493795                       # Cumulative time (in ticks) in various power states (Tick)
system.cpu0.dtb_walker_cache.tags.tagsInUse            0                       # Average ticks per tags in use ((Tick/Count))
system.cpu0.dtb_walker_cache.tags.totalRefs            0                       # Total number of references to valid blocks. (Count)
system.cpu0.dtb_walker_cache.tags.sampledRefs            0                       # Sample count of references to valid blocks. (Count)
system.cpu0.dtb_walker_cache.tags.avgRefs          nan                       # Average number of references to valid blocks. ((Count/Count))
system.cpu0.dtb_walker_cache.tags.warmupTick            0                       # The tick when the warmup percentage was hit. (Tick)
system.cpu0.dtb_walker_cache.tags.tagAccesses            0                       # Number of tag accesses (Count)
system.cpu0.dtb_walker_cache.tags.dataAccesses            0                       # Number of data accesses (Count)
system.cpu0.dtb_walker_cache.tags.indexing_policy.tagAccessHist::samples        44049                       # Histogram of set associative cache access per tag (Count)
system.cpu0.dtb_walker_cache.tags.indexing_policy.tagAccessHist::mean     3.503439                       # Histogram of set associative cache access per tag (Count)
system.cpu0.dtb_walker_cache.tags.indexing_policy.tagAccessHist::gmean            0                       # Histogram of set associative cache access per tag (Count)
system.cpu0.dtb_walker_cache.tags.indexing_policy.tagAccessHist::stdev     2.291792                       # Histogram of set associative cache access per tag (Count)
system.cpu0.dtb_walker_cache.tags.indexing_policy.tagAccessHist::0         5496     12.48%     12.48% # Histogram of set associative cache access per tag (Count)
system.cpu0.dtb_walker_cache.tags.indexing_policy.tagAccessHist::1         5495     12.47%     24.95% # Histogram of set associative cache access per tag (Count)
system.cpu0.dtb_walker_cache.tags.indexing_policy.tagAccessHist::2         5512     12.51%     37.47% # Histogram of set associative cache access per tag (Count)
system.cpu0.dtb_walker_cache.tags.indexing_policy.tagAccessHist::3         5497     12.48%     49.94% # Histogram of set associative cache access per tag (Count)
system.cpu0.dtb_walker_cache.tags.indexing_policy.tagAccessHist::4         5498     12.48%     62.43% # Histogram of set associative cache access per tag (Count)
system.cpu0.dtb_walker_cache.tags.indexing_policy.tagAccessHist::5         5500     12.49%     74.91% # Histogram of set associative cache access per tag (Count)
system.cpu0.dtb_walker_cache.tags.indexing_policy.tagAccessHist::6         5536     12.57%     87.48% # Histogram of set associative cache access per tag (Count)
system.cpu0.dtb_walker_cache.tags.indexing_policy.tagAccessHist::7         5515     12.52%    100.00% # Histogram of set associative cache access per tag (Count)
system.cpu0.dtb_walker_cache.tags.indexing_policy.tagAccessHist::8            0      0.00%    100.00% # Histogram of set associative cache access per tag (Count)
system.cpu0.dtb_walker_cache.tags.indexing_policy.tagAccessHist::9            0      0.00%    100.00% # Histogram of set associative cache access per tag (Count)
system.cpu0.dtb_walker_cache.tags.indexing_policy.tagAccessHist::10            0      0.00%    100.00% # Histogram of set associative cache access per tag (Count)
system.cpu0.dtb_walker_cache.tags.indexing_policy.tagAccessHist::11            0      0.00%    100.00% # Histogram of set associative cache access per tag (Count)
system.cpu0.dtb_walker_cache.tags.indexing_policy.tagAccessHist::12            0      0.00%    100.00% # Histogram of set associative cache access per tag (Count)
system.cpu0.dtb_walker_cache.tags.indexing_policy.tagAccessHist::13            0      0.00%    100.00% # Histogram of set associative cache access per tag (Count)
system.cpu0.dtb_walker_cache.tags.indexing_policy.tagAccessHist::14            0      0.00%    100.00% # Histogram of set associative cache access per tag (Count)
system.cpu0.dtb_walker_cache.tags.indexing_policy.tagAccessHist::15            0      0.00%    100.00% # Histogram of set associative cache access per tag (Count)
system.cpu0.dtb_walker_cache.tags.indexing_policy.tagAccessHist::16            0      0.00%    100.00% # Histogram of set associative cache access per tag (Count)
system.cpu0.dtb_walker_cache.tags.indexing_policy.tagAccessHist::17            0      0.00%    100.00% # Histogram of set associative cache access per tag (Count)
system.cpu0.dtb_walker_cache.tags.indexing_policy.tagAccessHist::18            0      0.00%    100.00% # Histogram of set associative cache access per tag (Count)
system.cpu0.dtb_walker_cache.tags.indexing_policy.tagAccessHist::19            0      0.00%    100.00% # Histogram of set associative cache access per tag (Count)
system.cpu0.dtb_walker_cache.tags.indexing_policy.tagAccessHist::20            0      0.00%    100.00% # Histogram of set associative cache access per tag (Count)
system.cpu0.dtb_walker_cache.tags.indexing_policy.tagAccessHist::21            0      0.00%    100.00% # Histogram of set associative cache access per tag (Count)
system.cpu0.dtb_walker_cache.tags.indexing_policy.tagAccessHist::22            0      0.00%    100.00% # Histogram of set associative cache access per tag (Count)
system.cpu0.dtb_walker_cache.tags.indexing_policy.tagAccessHist::23            0      0.00%    100.00% # Histogram of set associative cache access per tag (Count)
system.cpu0.dtb_walker_cache.tags.indexing_policy.tagAccessHist::24            0      0.00%    100.00% # Histogram of set associative cache access per tag (Count)
system.cpu0.dtb_walker_cache.tags.indexing_policy.tagAccessHist::25            0      0.00%    100.00% # Histogram of set associative cache access per tag (Count)
system.cpu0.dtb_walker_cache.tags.indexing_policy.tagAccessHist::26            0      0.00%    100.00% # Histogram of set associative cache access per tag (Count)
system.cpu0.dtb_walker_cache.tags.indexing_policy.tagAccessHist::27            0      0.00%    100.00% # Histogram of set associative cache access per tag (Count)
system.cpu0.dtb_walker_cache.tags.indexing_policy.tagAccessHist::28            0      0.00%    100.00% # Histogram of set associative cache access per tag (Count)
system.cpu0.dtb_walker_cache.tags.indexing_policy.tagAccessHist::29            0      0.00%    100.00% # Histogram of set associative cache access per tag (Count)
system.cpu0.dtb_walker_cache.tags.indexing_policy.tagAccessHist::30            0      0.00%    100.00% # Histogram of set associative cache access per tag (Count)
system.cpu0.dtb_walker_cache.tags.indexing_policy.tagAccessHist::31            0      0.00%    100.00% # Histogram of set associative cache access per tag (Count)
system.cpu0.dtb_walker_cache.tags.indexing_policy.tagAccessHist::32            0      0.00%    100.00% # Histogram of set associative cache access per tag (Count)
system.cpu0.dtb_walker_cache.tags.indexing_policy.tagAccessHist::33            0      0.00%    100.00% # Histogram of set associative cache access per tag (Count)
system.cpu0.dtb_walker_cache.tags.indexing_policy.tagAccessHist::34            0      0.00%    100.00% # Histogram of set associative cache access per tag (Count)
system.cpu0.dtb_walker_cache.tags.indexing_policy.tagAccessHist::35            0      0.00%    100.00% # Histogram of set associative cache access per tag (Count)
system.cpu0.dtb_walker_cache.tags.indexing_policy.tagAccessHist::36            0      0.00%    100.00% # Histogram of set associative cache access per tag (Count)
system.cpu0.dtb_walker_cache.tags.indexing_policy.tagAccessHist::37            0      0.00%    100.00% # Histogram of set associative cache access per tag (Count)
system.cpu0.dtb_walker_cache.tags.indexing_policy.tagAccessHist::38            0      0.00%    100.00% # Histogram of set associative cache access per tag (Count)
system.cpu0.dtb_walker_cache.tags.indexing_policy.tagAccessHist::39            0      0.00%    100.00% # Histogram of set associative cache access per tag (Count)
system.cpu0.dtb_walker_cache.tags.indexing_policy.tagAccessHist::40            0      0.00%    100.00% # Histogram of set associative cache access per tag (Count)
system.cpu0.dtb_walker_cache.tags.indexing_policy.tagAccessHist::41            0      0.00%    100.00% # Histogram of set associative cache access per tag (Count)
system.cpu0.dtb_walker_cache.tags.indexing_policy.tagAccessHist::42            0      0.00%    100.00% # Histogram of set associative cache access per tag (Count)
system.cpu0.dtb_walker_cache.tags.indexing_policy.tagAccessHist::43            0      0.00%    100.00% # Histogram of set associative cache access per tag (Count)
system.cpu0.dtb_walker_cache.tags.indexing_policy.tagAccessHist::44            0      0.00%    100.00% # Histogram of set associative cache access per tag (Count)
system.cpu0.dtb_walker_cache.tags.indexing_policy.tagAccessHist::45            0      0.00%    100.00% # Histogram of set associative cache access per tag (Count)
system.cpu0.dtb_walker_cache.tags.indexing_policy.tagAccessHist::46            0      0.00%    100.00% # Histogram of set associative cache access per tag (Count)
system.cpu0.dtb_walker_cache.tags.indexing_policy.tagAccessHist::47            0      0.00%    100.00% # Histogram of set associative cache access per tag (Count)
system.cpu0.dtb_walker_cache.tags.indexing_policy.tagAccessHist::48            0      0.00%    100.00% # Histogram of set associative cache access per tag (Count)
system.cpu0.dtb_walker_cache.tags.indexing_policy.tagAccessHist::49            0      0.00%    100.00% # Histogram of set associative cache access per tag (Count)
system.cpu0.dtb_walker_cache.tags.indexing_policy.tagAccessHist::50            0      0.00%    100.00% # Histogram of set associative cache access per tag (Count)
system.cpu0.dtb_walker_cache.tags.indexing_policy.tagAccessHist::51            0      0.00%    100.00% # Histogram of set associative cache access per tag (Count)
system.cpu0.dtb_walker_cache.tags.indexing_policy.tagAccessHist::52            0      0.00%    100.00% # Histogram of set associative cache access per tag (Count)
system.cpu0.dtb_walker_cache.tags.indexing_policy.tagAccessHist::53            0      0.00%    100.00% # Histogram of set associative cache access per tag (Count)
[...]
system.monitor.ittReqReq::55001-60000           35860      0.87%     59.05% # Request-to-request inter transaction time (Tick)
system.monitor.ittReqReq::60001-65000           73539      1.79%     60.84% # Request-to-request inter transaction time (Tick)
system.monitor.ittReqReq::65001-70000          184710      4.49%     65.33% # Request-to-request inter transaction time (Tick)
system.monitor.ittReqReq::70001-75000          752839     18.30%     83.63% # Request-to-request inter transaction time (Tick)
system.monitor.ittReqReq::75001-80000           20356      0.49%     84.12% # Request-to-request inter transaction time (Tick)
system.monitor.ittReqReq::80001-85000          263273      6.40%     90.52% # Request-to-request inter transaction time (Tick)
system.monitor.ittReqReq::85001-90000           81416      1.98%     92.50% # Request-to-request inter transaction time (Tick)
system.monitor.ittReqReq::90001-95000           35365      0.86%     93.36% # Request-to-request inter transaction time (Tick)
system.monitor.ittReqReq::95001-100000          45564      1.11%     94.47% # Request-to-request inter transaction time (Tick)
system.monitor.ittReqReq::overflows            227493      5.53%    100.00% # Request-to-request inter transaction time (Tick)
system.monitor.ittReqReq::min_value               333                       # Request-to-request inter transaction time (Tick)
system.monitor.ittReqReq::max_value        1760210694                       # Request-to-request inter transaction time (Tick)
system.monitor.ittReqReq::total               4113782                       # Request-to-request inter transaction time (Tick)
system.monitor.outstandingReadsHist::samples          247                       # Outstanding read transactions (Count)
system.monitor.outstandingReadsHist::mean     0.663968                       # Outstanding read transactions (Count)
system.monitor.outstandingReadsHist::gmean            0                       # Outstanding read transactions (Count)
system.monitor.outstandingReadsHist::stdev     0.684050                       # Outstanding read transactions (Count)
system.monitor.outstandingReadsHist::0            111     44.94%     44.94% # Outstanding read transactions (Count)
system.monitor.outstandingReadsHist::1            110     44.53%     89.47% # Outstanding read transactions (Count)
system.monitor.outstandingReadsHist::2             24      9.72%     99.19% # Outstanding read transactions (Count)
system.monitor.outstandingReadsHist::3              2      0.81%    100.00% # Outstanding read transactions (Count)
system.monitor.outstandingReadsHist::4              0      0.00%    100.00% # Outstanding read transactions (Count)
system.monitor.outstandingReadsHist::5              0      0.00%    100.00% # Outstanding read transactions (Count)
system.monitor.outstandingReadsHist::6              0      0.00%    100.00% # Outstanding read transactions (Count)
system.monitor.outstandingReadsHist::7              0      0.00%    100.00% # Outstanding read transactions (Count)
system.monitor.outstandingReadsHist::8              0      0.00%    100.00% # Outstanding read transactions (Count)
system.monitor.outstandingReadsHist::9              0      0.00%    100.00% # Outstanding read transactions (Count)
system.monitor.outstandingReadsHist::10             0      0.00%    100.00% # Outstanding read transactions (Count)
system.monitor.outstandingReadsHist::11             0      0.00%    100.00% # Outstanding read transactions (Count)
system.monitor.outstandingReadsHist::12             0      0.00%    100.00% # Outstanding read transactions (Count)
system.monitor.outstandingReadsHist::13             0      0.00%    100.00% # Outstanding read transactions (Count)
system.monitor.outstandingReadsHist::14             0      0.00%    100.00% # Outstanding read transactions (Count)
system.monitor.outstandingReadsHist::15             0      0.00%    100.00% # Outstanding read transactions (Count)
system.monitor.outstandingReadsHist::16             0      0.00%    100.00% # Outstanding read transactions (Count)
system.monitor.outstandingReadsHist::17             0      0.00%    100.00% # Outstanding read transactions (Count)
system.monitor.outstandingReadsHist::18             0      0.00%    100.00% # Outstanding read transactions (Count)
system.monitor.outstandingReadsHist::19             0      0.00%    100.00% # Outstanding read transactions (Count)
system.monitor.outstandingReadsHist::total          247                       # Outstanding read transactions (Count)
system.monitor.outstandingWritesHist::samples          247                       # Outstanding write transactions (Count)
system.monitor.outstandingWritesHist::mean            0                       # Outstanding write transactions (Count)
system.monitor.outstandingWritesHist::gmean            0                       # Outstanding write transactions (Count)
system.monitor.outstandingWritesHist::stdev            0                       # Outstanding write transactions (Count)
system.monitor.outstandingWritesHist::0           247    100.00%    100.00% # Outstanding write transactions (Count)
system.monitor.outstandingWritesHist::1             0      0.00%    100.00% # Outstanding write transactions (Count)
system.monitor.outstandingWritesHist::2             0      0.00%    100.00% # Outstanding write transactions (Count)
system.monitor.outstandingWritesHist::3             0      0.00%    100.00% # Outstanding write transactions (Count)
system.monitor.outstandingWritesHist::4             0      0.00%    100.00% # Outstanding write transactions (Count)
system.monitor.outstandingWritesHist::5             0      0.00%    100.00% # Outstanding write transactions (Count)
system.monitor.outstandingWritesHist::6             0      0.00%    100.00% # Outstanding write transactions (Count)
system.monitor.outstandingWritesHist::7             0      0.00%    100.00% # Outstanding write transactions (Count)
system.monitor.outstandingWritesHist::8             0      0.00%    100.00% # Outstanding write transactions (Count)
system.monitor.outstandingWritesHist::9             0      0.00%    100.00% # Outstanding write transactions (Count)
system.monitor.outstandingWritesHist::10            0      0.00%    100.00% # Outstanding write transactions (Count)
system.monitor.outstandingWritesHist::11            0      0.00%    100.00% # Outstanding write transactions (Count)
system.monitor.outstandingWritesHist::12            0      0.00%    100.00% # Outstanding write transactions (Count)
system.monitor.outstandingWritesHist::13            0      0.00%    100.00% # Outstanding write transactions (Count)
system.monitor.outstandingWritesHist::14            0      0.00%    100.00% # Outstanding write transactions (Count)
system.monitor.outstandingWritesHist::15            0      0.00%    100.00% # Outstanding write transactions (Count)
system.monitor.outstandingWritesHist::16            0      0.00%    100.00% # Outstanding write transactions (Count)
system.monitor.outstandingWritesHist::17            0      0.00%    100.00% # Outstanding write transactions (Count)
system.monitor.outstandingWritesHist::18            0      0.00%    100.00% # Outstanding write transactions (Count)
system.monitor.outstandingWritesHist::19            0      0.00%    100.00% # Outstanding write transactions (Count)
system.monitor.outstandingWritesHist::total          247                       # Outstanding write transactions (Count)
system.monitor.readTransHist::samples             247                       # Histogram of read transactions per sample period (Count)
system.monitor.readTransHist::mean       10006.744939                       # Histogram of read transactions per sample period (Count)
system.monitor.readTransHist::gmean                 0                       # Histogram of read transactions per sample period (Count)
system.monitor.readTransHist::stdev       5418.315640                       # Histogram of read transactions per sample period (Count)
system.monitor.readTransHist::0-2047               19      7.69%      7.69% # Histogram of read transactions per sample period (Count)
system.monitor.readTransHist::2048-4095            25     10.12%     17.81% # Histogram of read transactions per sample period (Count)
system.monitor.readTransHist::4096-6143            20      8.10%     25.91% # Histogram of read transactions per sample period (Count)
system.monitor.readTransHist::6144-8191            15      6.07%     31.98% # Histogram of read transactions per sample period (Count)
system.monitor.readTransHist::8192-10239           22      8.91%     40.89% # Histogram of read transactions per sample period (Count)
system.monitor.readTransHist::10240-12287           82     33.20%     74.09% # Histogram of read transactions per sample period (Count)
system.monitor.readTransHist::12288-14335           18      7.29%     81.38% # Histogram of read transactions per sample period (Count)
system.monitor.readTransHist::14336-16383            9      3.64%     85.02% # Histogram of read transactions per sample period (Count)
system.monitor.readTransHist::16384-18431           24      9.72%     94.74% # Histogram of read transactions per sample period (Count)
system.monitor.readTransHist::18432-20479            9      3.64%     98.38% # Histogram of read transactions per sample period (Count)
system.monitor.readTransHist::20480-22527            0      0.00%     98.38% # Histogram of read transactions per sample period (Count)
system.monitor.readTransHist::22528-24575            2      0.81%     99.19% # Histogram of read transactions per sample period (Count)
system.monitor.readTransHist::24576-26623            0      0.00%     99.19% # Histogram of read transactions per sample period (Count)
system.monitor.readTransHist::26624-28671            1      0.40%     99.60% # Histogram of read transactions per sample period (Count)
system.monitor.readTransHist::28672-30719            0      0.00%     99.60% # Histogram of read transactions per sample period (Count)
system.monitor.readTransHist::30720-32767            1      0.40%    100.00% # Histogram of read transactions per sample period (Count)
system.monitor.readTransHist::32768-34815            0      0.00%    100.00% # Histogram of read transactions per sample period (Count)
system.monitor.readTransHist::34816-36863            0      0.00%    100.00% # Histogram of read transactions per sample period (Count)
system.monitor.readTransHist::36864-38911            0      0.00%    100.00% # Histogram of read transactions per sample period (Count)
system.monitor.readTransHist::38912-40959            0      0.00%    100.00% # Histogram of read transactions per sample period (Count)
system.monitor.readTransHist::total               247                       # Histogram of read transactions per sample period (Count)
system.monitor.writeTransHist::samples            247                       # Histogram of write transactions per sample period (Count)
system.monitor.writeTransHist::mean       6622.870445                       # Histogram of write transactions per sample period (Count)
system.monitor.writeTransHist::gmean                0                       # Histogram of write transactions per sample period (Count)
system.monitor.writeTransHist::stdev      4545.485989                       # Histogram of write transactions per sample period (Count)
system.monitor.writeTransHist::0-2047              46     18.62%     18.62% # Histogram of write transactions per sample period (Count)
system.monitor.writeTransHist::2048-4095           33     13.36%     31.98% # Histogram of write transactions per sample period (Count)
system.monitor.writeTransHist::4096-6143           26     10.53%     42.51% # Histogram of write transactions per sample period (Count)
system.monitor.writeTransHist::6144-8191           63     25.51%     68.02% # Histogram of write transactions per sample period (Count)
system.monitor.writeTransHist::8192-10239           23      9.31%     77.33% # Histogram of write transactions per sample period (Count)
system.monitor.writeTransHist::10240-12287           41     16.60%     93.93% # Histogram of write transactions per sample period (Count)
system.monitor.writeTransHist::12288-14335            6      2.43%     96.36% # Histogram of write transactions per sample period (Count)
system.monitor.writeTransHist::14336-16383            4      1.62%     97.98% # Histogram of write transactions per sample period (Count)
system.monitor.writeTransHist::16384-18431            3      1.21%     99.19% # Histogram of write transactions per sample period (Count)
system.monitor.writeTransHist::18432-20479            0      0.00%     99.19% # Histogram of write transactions per sample period (Count)
system.monitor.writeTransHist::20480-22527            0      0.00%     99.19% # Histogram of write transactions per sample period (Count)
system.monitor.writeTransHist::22528-24575            0      0.00%     99.19% # Histogram of write transactions per sample period (Count)
system.monitor.writeTransHist::24576-26623            0      0.00%     99.19% # Histogram of write transactions per sample period (Count)
system.monitor.writeTransHist::26624-28671            1      0.40%     99.60% # Histogram of write transactions per sample period (Count)
system.monitor.writeTransHist::28672-30719            1      0.40%    100.00% # Histogram of write transactions per sample period (Count)
system.monitor.writeTransHist::30720-32767            0      0.00%    100.00% # Histogram of write transactions per sample period (Count)
system.monitor.writeTransHist::32768-34815            0      0.00%    100.00% # Histogram of write transactions per sample period (Count)
system.monitor.writeTransHist::34816-36863            0      0.00%    100.00% # Histogram of write transactions per sample period (Count)
system.monitor.writeTransHist::36864-38911            0      0.00%    100.00% # Histogram of write transactions per sample period (Count)
system.monitor.writeTransHist::38912-40959            0      0.00%    100.00% # Histogram of write transactions per sample period (Count)
system.monitor.writeTransHist::total              247                       # Histogram of write transactions per sample period (Count)
system.tollcbus.transDist::ReadResp           1239358                       # Transaction distribution (Count)
system.tollcbus.transDist::WritebackDirty      2996957                       # Transaction distribution (Count)
system.tollcbus.transDist::CleanEvict         1725162                       # Transaction distribution (Count)
system.tollcbus.transDist::UpgradeReq            4120                       # Transaction distribution (Count)
system.tollcbus.transDist::UpgradeResp           4120                       # Transaction distribution (Count)
system.tollcbus.transDist::ReadExReq          1287000                       # Transaction distribution (Count)
system.tollcbus.transDist::ReadExResp         1287000                       # Transaction distribution (Count)
system.tollcbus.transDist::ReadSharedReq      1239358                       # Transaction distribution (Count)
system.tollcbus.pktCount_system.cpu0.l2cache.mem_side_port::system.monitor-cpu_side_port      5483089                       # Packet count per connected requestor and responder (Count)
system.tollcbus.pktCount_system.cpu1.l2cache.mem_side_port::system.monitor-cpu_side_port      1981250                       # Packet count per connected requestor and responder (Count)
system.tollcbus.pktCount::total               7464339                       # Packet count per connected requestor and responder (Count)
system.tollcbus.pktSize_system.cpu0.l2cache.mem_side_port::system.monitor-cpu_side_port    183046464                       # Cumulative packet size per connected requestor and responder (Byte)
system.tollcbus.pktSize_system.cpu1.l2cache.mem_side_port::system.monitor-cpu_side_port     80228096                       # Cumulative packet size per connected requestor and responder (Byte)
system.tollcbus.pktSize::total              263274560                       # Cumulative packet size per connected requestor and responder (Byte)
system.tollcbus.snoops                        2318736                       # Total snoops (Count)
system.tollcbus.snoopTraffic                 90217600                       # Total snoop traffic (Byte)
system.tollcbus.snoopFanout::samples          4796594                       # Request fanout histogram (Count)
system.tollcbus.snoopFanout::mean            0.070241                       # Request fanout histogram (Count)
system.tollcbus.snoopFanout::stdev           0.259963                       # Request fanout histogram (Count)
system.tollcbus.snoopFanout::underflows             0      0.00%      0.00% # Request fanout histogram (Count)
system.tollcbus.snoopFanout::0                4465127     93.09%     93.09% # Request fanout histogram (Count)
system.tollcbus.snoopFanout::1                 326015      6.80%     99.89% # Request fanout histogram (Count)
system.tollcbus.snoopFanout::2                   5452      0.11%    100.00% # Request fanout histogram (Count)
system.tollcbus.snoopFanout::overflows              0      0.00%    100.00% # Request fanout histogram (Count)
system.tollcbus.snoopFanout::min_value              0                       # Request fanout histogram (Count)
system.tollcbus.snoopFanout::max_value              2                       # Request fanout histogram (Count)
system.tollcbus.snoopFanout::total            4796594                       # Request fanout histogram (Count)
system.tollcbus.power_state.pwrStateResidencyTicks::UNDEFINED 247463493795                       # Cumulative time (in ticks) in various power states (Tick)
system.tollcbus.reqLayer0.occupancy        2751476769                       # Layer occupancy (ticks) (Tick)
system.tollcbus.reqLayer0.utilization             0.0                       # Layer utilization (Ratio)
system.tollcbus.respLayer0.occupancy       1846656646                       # Layer occupancy (ticks) (Tick)
system.tollcbus.respLayer0.utilization            0.0                       # Layer utilization (Ratio)
system.tollcbus.respLayer1.occupancy        679116336                       # Layer occupancy (ticks) (Tick)
system.tollcbus.respLayer1.utilization            0.0                       # Layer utilization (Ratio)
system.tollcbus.snoop_filter.totRequests      4986481                       # Total number of requests made to the snoop filter. (Count)
system.tollcbus.snoop_filter.hitSingleRequests      2485601                       # Number of requests hitting in the snoop filter with a single holder of the requested data. (Count)
system.tollcbus.snoop_filter.hitMultiRequests        37224                       # Number of requests hitting in the snoop filter with multiple (>1) holders of the requested data. (Count)
system.tollcbus.snoop_filter.totSnoops         264669                       # Total number of snoops made to the snoop filter. (Count)
system.tollcbus.snoop_filter.hitSingleSnoops       259217                       # Number of snoops hitting in the snoop filter with a single holder of the requested data. (Count)
system.tollcbus.snoop_filter.hitMultiSnoops         5452                       # Number of snoops hitting in the snoop filter with multiple (>1) holders of the requested data. (Count)
system.voltage_domain.voltage                       1                       # Voltage in Volts (Volt)
system.workload.inst.arm                            0                       # number of arm instructions executed (Count)
system.workload.inst.quiesce                        0                       # number of quiesce instructions executed (Count)

---------- End Simulation Statistics   ----------
