
---------- Begin Simulation Statistics ----------
simSeconds                                   0.067099                       # Number of seconds simulated (Second)
simTicks                                  67099398102                       # Number of ticks simulated (Tick)
finalTick                                 67099398102                       # Number of ticks from beginning of simulation (restored from checkpoints and never reset) (Tick)
simFreq                                  1000000000000                       # The number of ticks per simulated second ((Tick/Second))
hostSeconds                                   1963.17                       # Real time elapsed on the host (Second)
hostTickRate                                 34179183                       # The number of ticks simulated per host second (ticks/s) ((Tick/Second))
hostMemory                                     748060                       # Number of bytes of host memory used (Byte)
simInsts                                    254019501                       # Number of instructions simulated (Count)
simOps                                      437757410                       # Number of ops (including micro ops) simulated (Count)
hostInstRate                                   129393                       # Simulator instruction rate (inst/s) ((Count/Second))
hostOpRate                                     222985                       # Simulator op (including micro ops) rate (op/s) ((Count/Second))
system.clk_domain.clock                          1000                       # Clock period in ticks (Tick)
system.cpu0.numCycles                       201262756                       # Number of cpu cycles simulated (Cycle)
system.cpu0.numWorkItemsStarted                     0                       # Number of work items this cpu started (Count)
system.cpu0.numWorkItemsCompleted                   0                       # Number of work items this cpu completed (Count)
system.cpu0.instsAdded                      219273738                       # Number of instructions added to the IQ (excludes non-spec) (Count)
system.cpu0.nonSpecInstsAdded                    1727                       # Number of non-speculative instructions added to the IQ (Count)
system.cpu0.instsIssued                     219188465                       # Number of instructions issued (Count)
system.cpu0.squashedInstsIssued                   244                       # Number of squashed instructions issued (Count)
system.cpu0.squashedInstsExamined              388721                       # Number of squashed instructions iterated over during squash; mainly for profiling (Count)
system.cpu0.squashedOperandsExamined           311457                       # Number of squashed operands that are examined and possibly removed from graph (Count)
system.cpu0.squashedNonSpecRemoved                908                       # Number of squashed non-spec instructions that were removed (Count)
system.cpu0.numIssuedDist::samples          201112122                       # Number of insts issued each cycle (Count)
system.cpu0.numIssuedDist::mean              1.089882                       # Number of insts issued each cycle (Count)
system.cpu0.numIssuedDist::stdev             1.441570                       # Number of insts issued each cycle (Count)
system.cpu0.numIssuedDist::underflows               0      0.00%      0.00% # Number of insts issued each cycle (Count)
system.cpu0.numIssuedDist::0                100607796     50.03%     50.03% # Number of insts issued each cycle (Count)
system.cpu0.numIssuedDist::1                 37082271     18.44%     68.46% # Number of insts issued each cycle (Count)
system.cpu0.numIssuedDist::2                 34782934     17.30%     85.76% # Number of insts issued each cycle (Count)
system.cpu0.numIssuedDist::3                 14150768      7.04%     92.80% # Number of insts issued each cycle (Count)
system.cpu0.numIssuedDist::4                  6880601      3.42%     96.22% # Number of insts issued each cycle (Count)
system.cpu0.numIssuedDist::5                  4336751      2.16%     98.37% # Number of insts issued each cycle (Count)
system.cpu0.numIssuedDist::6                  2347186      1.17%     99.54% # Number of insts issued each cycle (Count)
system.cpu0.numIssuedDist::7                   591773      0.29%     99.83% # Number of insts issued each cycle (Count)
system.cpu0.numIssuedDist::8                   332042      0.17%    100.00% # Number of insts issued each cycle (Count)
system.cpu0.numIssuedDist::overflows                0      0.00%    100.00% # Number of insts issued each cycle (Count)
system.cpu0.numIssuedDist::min_value                0                       # Number of insts issued each cycle (Count)
system.cpu0.numIssuedDist::max_value                8                       # Number of insts issued each cycle (Count)
system.cpu0.numIssuedDist::total            201112122                       # Number of insts issued each cycle (Count)
system.cpu0.statFuBusy::No_OpClass                  0      0.00%      0.00% # attempts to use FU when none available (Count)
system.cpu0.statFuBusy::IntAlu                 318926     99.67%     99.67% # attempts to use FU when none available (Count)
system.cpu0.statFuBusy::IntMult                     0      0.00%     99.67% # attempts to use FU when none available (Count)
system.cpu0.statFuBusy::IntDiv                      0      0.00%     99.67% # attempts to use FU when none available (Count)
system.cpu0.statFuBusy::FloatAdd                    0      0.00%     99.67% # attempts to use FU when none available (Count)
system.cpu0.statFuBusy::FloatCmp                    0      0.00%     99.67% # attempts to use FU when none available (Count)
system.cpu0.statFuBusy::FloatCvt                    0      0.00%     99.67% # attempts to use FU when none available (Count)
system.cpu0.statFuBusy::FloatMult                   0      0.00%     99.67% # attempts to use FU when none available (Count)
system.cpu0.statFuBusy::FloatMultAcc                0      0.00%     99.67% # attempts to use FU when none available (Count)
system.cpu0.statFuBusy::FloatDiv                    0      0.00%     99.67% # attempts to use FU when none available (Count)
system.cpu0.statFuBusy::FloatMisc                   0      0.00%     99.67% # attempts to use FU when none available (Count)
system.cpu0.statFuBusy::FloatSqrt                   0      0.00%     99.67% # attempts to use FU when none available (Count)
system.cpu0.statFuBusy::SimdAdd                     0      0.00%     99.67% # attempts to use FU when none available (Count)
system.cpu0.statFuBusy::SimdAddAcc                  0      0.00%     99.67% # attempts to use FU when none available (Count)
system.cpu0.statFuBusy::SimdAlu                    17      0.01%     99.67% # attempts to use FU when none available (Count)
system.cpu0.statFuBusy::SimdCmp                     0      0.00%     99.67% # attempts to use FU when none available (Count)
system.cpu0.statFuBusy::SimdCvt                    21      0.01%     99.68% # attempts to use FU when none available (Count)
system.cpu0.statFuBusy::SimdMisc                    4      0.00%     99.68% # attempts to use FU when none available (Count)
system.cpu0.statFuBusy::SimdMult                    0      0.00%     99.68% # attempts to use FU when none available (Count)
system.cpu0.statFuBusy::SimdMultAcc                 0      0.00%     99.68% # attempts to use FU when none available (Count)
system.cpu0.statFuBusy::SimdShift                   0      0.00%     99.68% # attempts to use FU when none available (Count)
system.cpu0.statFuBusy::SimdShiftAcc                0      0.00%     99.68% # attempts to use FU when none available (Count)
system.cpu0.statFuBusy::SimdDiv                     0      0.00%     99.68% # attempts to use FU when none available (Count)
system.cpu0.statFuBusy::SimdSqrt                    0      0.00%     99.68% # attempts to use FU when none available (Count)
system.cpu0.statFuBusy::SimdFloatAdd                0      0.00%     99.68% # attempts to use FU when none available (Count)
system.cpu0.statFuBusy::SimdFloatAlu                0      0.00%     99.68% # attempts to use FU when none available (Count)
system.cpu0.statFuBusy::SimdFloatCmp                0      0.00%     99.68% # attempts to use FU when none available (Count)
system.cpu0.statFuBusy::SimdFloatCvt                0      0.00%     99.68% # attempts to use FU when none available (Count)
system.cpu0.statFuBusy::SimdFloatDiv                0      0.00%     99.68% # attempts to use FU when none available (Count)
system.cpu0.statFuBusy::SimdFloatMisc               0      0.00%     99.68% # attempts to use FU when none available (Count)
system.cpu0.statFuBusy::SimdFloatMult               0      0.00%     99.68% # attempts to use FU when none available (Count)
system.cpu0.statFuBusy::SimdFloatMultAcc            0      0.00%     99.68% # attempts to use FU when none available (Count)
system.cpu0.statFuBusy::SimdFloatSqrt               0      0.00%     99.68% # attempts to use FU when none available (Count)
system.cpu0.statFuBusy::SimdReduceAdd               0      0.00%     99.68% # attempts to use FU when none available (Count)
system.cpu0.statFuBusy::SimdReduceAlu               0      0.00%     99.68% # attempts to use FU when none available (Count)
system.cpu0.statFuBusy::SimdReduceCmp               0      0.00%     99.68% # attempts to use FU when none available (Count)
system.cpu0.statFuBusy::SimdFloatReduceAdd            0      0.00%     99.68% # attempts to use FU when none available (Count)
system.cpu0.statFuBusy::SimdFloatReduceCmp            0      0.00%     99.68% # attempts to use FU when none available (Count)
system.cpu0.statFuBusy::SimdAes                     0      0.00%     99.68% # attempts to use FU when none available (Count)
system.cpu0.statFuBusy::SimdAesMix                  0      0.00%     99.68% # attempts to use FU when none available (Count)
system.cpu0.statFuBusy::SimdSha1Hash                0      0.00%     99.68% # attempts to use FU when none available (Count)
system.cpu0.statFuBusy::SimdSha1Hash2               0      0.00%     99.68% # attempts to use FU when none available (Count)
system.cpu0.statFuBusy::SimdSha256Hash              0      0.00%     99.68% # attempts to use FU when none available (Count)
system.cpu0.statFuBusy::SimdSha256Hash2             0      0.00%     99.68% # attempts to use FU when none available (Count)
system.cpu0.statFuBusy::SimdShaSigma2               0      0.00%     99.68% # attempts to use FU when none available (Count)
system.cpu0.statFuBusy::SimdShaSigma3               0      0.00%     99.68% # attempts to use FU when none available (Count)
system.cpu0.statFuBusy::SimdPredAlu                 0      0.00%     99.68% # attempts to use FU when none available (Count)
system.cpu0.statFuBusy::MemRead                   567      0.18%     99.86% # attempts to use FU when none available (Count)
system.cpu0.statFuBusy::MemWrite                  291      0.09%     99.95% # attempts to use FU when none available (Count)
system.cpu0.statFuBusy::FloatMemRead               62      0.02%     99.97% # attempts to use FU when none available (Count)
system.cpu0.statFuBusy::FloatMemWrite             102      0.03%    100.00% # attempts to use FU when none available (Count)
system.cpu0.statFuBusy::IprAccess                   0      0.00%    100.00% # attempts to use FU when none available (Count)
system.cpu0.statFuBusy::InstPrefetch                0      0.00%    100.00% # attempts to use FU when none available (Count)
system.cpu0.statIssuedInstType_0::No_OpClass      2101422      0.96%      0.96% # Number of instructions issued per FU type, per thread (Count)
system.cpu0.statIssuedInstType_0::IntAlu     88991309     40.60%     41.56% # Number of instructions issued per FU type, per thread (Count)
system.cpu0.statIssuedInstType_0::IntMult          108      0.00%     41.56% # Number of instructions issued per FU type, per thread (Count)
system.cpu0.statIssuedInstType_0::IntDiv          268      0.00%     41.56% # Number of instructions issued per FU type, per thread (Count)
system.cpu0.statIssuedInstType_0::FloatAdd      6297837      2.87%     44.43% # Number of instructions issued per FU type, per thread (Count)
system.cpu0.statIssuedInstType_0::FloatCmp            0      0.00%     44.43% # Number of instructions issued per FU type, per thread (Count)
system.cpu0.statIssuedInstType_0::FloatCvt            0      0.00%     44.43% # Number of instructions issued per FU type, per thread (Count)
system.cpu0.statIssuedInstType_0::FloatMult            0      0.00%     44.43% # Number of instructions issued per FU type, per thread (Count)
system.cpu0.statIssuedInstType_0::FloatMultAcc            0      0.00%     44.43% # Number of instructions issued per FU type, per thread (Count)
system.cpu0.statIssuedInstType_0::FloatDiv            0      0.00%     44.43% # Number of instructions issued per FU type, per thread (Count)
system.cpu0.statIssuedInstType_0::FloatMisc            0      0.00%     44.43% # Number of instructions issued per FU type, per thread (Count)
system.cpu0.statIssuedInstType_0::FloatSqrt            0      0.00%     44.43% # Number of instructions issued per FU type, per thread (Count)
system.cpu0.statIssuedInstType_0::SimdAdd            0      0.00%     44.43% # Number of instructions issued per FU type, per thread (Count)
system.cpu0.statIssuedInstType_0::SimdAddAcc            0      0.00%     44.43% # Number of instructions issued per FU type, per thread (Count)
system.cpu0.statIssuedInstType_0::SimdAlu     17837520      8.14%     52.57% # Number of instructions issued per FU type, per thread (Count)
system.cpu0.statIssuedInstType_0::SimdCmp            0      0.00%     52.57% # Number of instructions issued per FU type, per thread (Count)
system.cpu0.statIssuedInstType_0::SimdCvt          340      0.00%     52.57% # Number of instructions issued per FU type, per thread (Count)
system.cpu0.statIssuedInstType_0::SimdMisc     17306284      7.90%     60.47% # Number of instructions issued per FU type, per thread (Count)
system.cpu0.statIssuedInstType_0::SimdMult            0      0.00%     60.47% # Number of instructions issued per FU type, per thread (Count)
system.cpu0.statIssuedInstType_0::SimdMultAcc            0      0.00%     60.47% # Number of instructions issued per FU type, per thread (Count)
system.cpu0.statIssuedInstType_0::SimdShift            0      0.00%     60.47% # Number of instructions issued per FU type, per thread (Count)
system.cpu0.statIssuedInstType_0::SimdShiftAcc            0      0.00%     60.47% # Number of instructions issued per FU type, per thread (Count)
system.cpu0.statIssuedInstType_0::SimdDiv            0      0.00%     60.47% # Number of instructions issued per FU type, per thread (Count)
system.cpu0.statIssuedInstType_0::SimdSqrt            0      0.00%     60.47% # Number of instructions issued per FU type, per thread (Count)
system.cpu0.statIssuedInstType_0::SimdFloatAdd     14158865      6.46%     66.93% # Number of instructions issued per FU type, per thread (Count)
system.cpu0.statIssuedInstType_0::SimdFloatAlu            0      0.00%     66.93% # Number of instructions issued per FU type, per thread (Count)
system.cpu0.statIssuedInstType_0::SimdFloatCmp            0      0.00%     66.93% # Number of instructions issued per FU type, per thread (Count)
system.cpu0.statIssuedInstType_0::SimdFloatCvt     17830938      8.13%     75.06% # Number of instructions issued per FU type, per thread (Count)
system.cpu0.statIssuedInstType_0::SimdFloatDiv            0      0.00%     75.06% # Number of instructions issued per FU type, per thread (Count)
system.cpu0.statIssuedInstType_0::SimdFloatMisc            0      0.00%     75.06% # Number of instructions issued per FU type, per thread (Count)
system.cpu0.statIssuedInstType_0::SimdFloatMult     28319761     12.92%     87.98% # Number of instructions issued per FU type, per thread (Count)
system.cpu0.statIssuedInstType_0::SimdFloatMultAcc            0      0.00%     87.98% # Number of instructions issued per FU type, per thread (Count)
system.cpu0.statIssuedInstType_0::SimdFloatSqrt            0      0.00%     87.98% # Number of instructions issued per FU type, per thread (Count)
system.cpu0.statIssuedInstType_0::SimdReduceAdd            0      0.00%     87.98% # Number of instructions issued per FU type, per thread (Count)
system.cpu0.statIssuedInstType_0::SimdReduceAlu            0      0.00%     87.98% # Number of instructions issued per FU type, per thread (Count)
system.cpu0.statIssuedInstType_0::SimdReduceCmp            0      0.00%     87.98% # Number of instructions issued per FU type, per thread (Count)
system.cpu0.statIssuedInstType_0::SimdFloatReduceAdd            0      0.00%     87.98% # Number of instructions issued per FU type, per thread (Count)
system.cpu0.statIssuedInstType_0::SimdFloatReduceCmp            0      0.00%     87.98% # Number of instructions issued per FU type, per thread (Count)
system.cpu0.statIssuedInstType_0::SimdAes            0      0.00%     87.98% # Number of instructions issued per FU type, per thread (Count)
system.cpu0.statIssuedInstType_0::SimdAesMix            0      0.00%     87.98% # Number of instructions issued per FU type, per thread (Count)
system.cpu0.statIssuedInstType_0::SimdSha1Hash            0      0.00%     87.98% # Number of instructions issued per FU type, per thread (Count)
system.cpu0.statIssuedInstType_0::SimdSha1Hash2            0      0.00%     87.98% # Number of instructions issued per FU type, per thread (Count)
system.cpu0.statIssuedInstType_0::SimdSha256Hash            0      0.00%     87.98% # Number of instructions issued per FU type, per thread (Count)
system.cpu0.statIssuedInstType_0::SimdSha256Hash2            0      0.00%     87.98% # Number of instructions issued per FU type, per thread (Count)
system.cpu0.statIssuedInstType_0::SimdShaSigma2            0      0.00%     87.98% # Number of instructions issued per FU type, per thread (Count)
system.cpu0.statIssuedInstType_0::SimdShaSigma3            0      0.00%     87.98% # Number of instructions issued per FU type, per thread (Count)
system.cpu0.statIssuedInstType_0::SimdPredAlu            0      0.00%     87.98% # Number of instructions issued per FU type, per thread (Count)
system.cpu0.statIssuedInstType_0::MemRead     10032717      4.58%     92.56% # Number of instructions issued per FU type, per thread (Count)
system.cpu0.statIssuedInstType_0::MemWrite      7389282      3.37%     95.93% # Number of instructions issued per FU type, per thread (Count)
system.cpu0.statIssuedInstType_0::FloatMemRead      8920751      4.07%    100.00% # Number of instructions issued per FU type, per thread (Count)
system.cpu0.statIssuedInstType_0::FloatMemWrite         1063      0.00%    100.00% # Number of instructions issued per FU type, per thread (Count)
system.cpu0.statIssuedInstType_0::IprAccess            0      0.00%    100.00% # Number of instructions issued per FU type, per thread (Count)
system.cpu0.statIssuedInstType_0::InstPrefetch            0      0.00%    100.00% # Number of instructions issued per FU type, per thread (Count)
system.cpu0.statIssuedInstType_0::total     219188465                       # Number of instructions issued per FU type, per thread (Count)
system.cpu0.issueRate                        1.089066                       # Inst issue rate ((Count/Cycle))
system.cpu0.fuBusy                             319990                       # FU busy when requested (Count)
system.cpu0.fuBusyRate                       0.001460                       # FU busy rate (busy events/executed inst) ((Count/Count))
system.cpu0.intInstQueueReads               359708588                       # Number of integer instruction queue reads (Count)
system.cpu0.intInstQueueWrites               79434819                       # Number of integer instruction queue writes (Count)
system.cpu0.intInstQueueWakeupAccesses       79126830                       # Number of integer instruction queue wakeup accesses (Count)
system.cpu0.fpInstQueueReads                280100698                       # Number of floating instruction queue reads (Count)
system.cpu0.fpInstQueueWrites               140229495                       # Number of floating instruction queue writes (Count)
system.cpu0.fpInstQueueWakeupAccesses       140047886                       # Number of floating instruction queue wakeup accesses (Count)
system.cpu0.vecInstQueueReads                       0                       # Number of vector instruction queue reads (Count)
system.cpu0.vecInstQueueWrites                      0                       # Number of vector instruction queue writes (Count)
system.cpu0.vecInstQueueWakeupAccesses              0                       # Number of vector instruction queue wakeup accesses (Count)
system.cpu0.intAluAccesses                   77356606                       # Number of integer alu accesses (Count)
system.cpu0.fpAluAccesses                   140050427                       # Number of floating point alu accesses (Count)
system.cpu0.vecAluAccesses                          0                       # Number of vector alu accesses (Count)
system.cpu0.numInsts                        219184816                       # Number of executed instructions (Count)
system.cpu0.numLoadInsts                     18952998                       # Number of load instructions executed (Count)
system.cpu0.numSquashedInsts                     3649                       # Number of squashed instructions skipped in execute (Count)
system.cpu0.numSwp                                  0                       # Number of swp insts executed (Count)
system.cpu0.numNop                                  0                       # Number of nop insts executed (Count)
system.cpu0.numRefs                          26343003                       # Number of memory reference insts executed (Count)
system.cpu0.numBranches                       7908679                       # Number of branches executed (Count)
system.cpu0.numStoreInsts                     7390005                       # Number of stores executed (Count)
system.cpu0.numRate                          1.089048                       # Inst execution rate ((Count/Cycle))
system.cpu0.timesIdled                            749                       # Number of times that the entire CPU went into an idle state and unscheduled itself (Count)
system.cpu0.idleCycles                         150634                       # Total number of cycles that the CPU has spent unscheduled due to idling (Cycle)
system.cpu0.quiesceCycles                      236939                       # Total number of cycles that CPU has spent quiesced or waiting for an interrupt (Cycle)
system.cpu0.committedInsts                  127014130                       # Number of Instructions Simulated (Count)
system.cpu0.committedOps                    218886721                       # Number of Ops (including micro ops) Simulated (Count)
system.cpu0.cpi                              1.584570                       # CPI: Cycles Per Instruction ((Cycle/Count))
system.cpu0.totalCpi                         1.584570                       # CPI: Total CPI of All Threads ((Cycle/Count))
system.cpu0.ipc                              0.631086                       # IPC: Instructions Per Cycle ((Count/Cycle))
system.cpu0.totalIpc                         0.631086                       # IPC: Total IPC of All Threads ((Count/Cycle))
system.cpu0.intRegfileReads                 123364941                       # Number of integer regfile reads (Count)
system.cpu0.intRegfileWrites                 66941997                       # Number of integer regfile writes (Count)
system.cpu0.fpRegfileReads                  274833129                       # Number of floating regfile reads (Count)
system.cpu0.fpRegfileWrites                 131132257                       # Number of floating regfile writes (Count)
system.cpu0.ccRegfileReads                   24867962                       # number of cc regfile reads (Count)
system.cpu0.ccRegfileWrites                  33780874                       # number of cc regfile writes (Count)
system.cpu0.miscRegfileReads                 48994540                       # number of misc regfile reads (Count)
system.cpu0.MemDepUnit__0.insertedLoads      18960416                       # Number of loads inserted to the mem dependence unit. (Count)
system.cpu0.MemDepUnit__0.insertedStores      7397445                       # Number of stores inserted to the mem dependence unit. (Count)
system.cpu0.MemDepUnit__0.conflictingLoads      4607638                       # Number of conflicting loads. (Count)
system.cpu0.MemDepUnit__0.conflictingStores      4111503                       # Number of conflicting stores. (Count)
system.cpu0.MemDepUnit__1.insertedLoads             0                       # Number of loads inserted to the mem dependence unit. (Count)
system.cpu0.MemDepUnit__1.insertedStores            0                       # Number of stores inserted to the mem dependence unit. (Count)
system.cpu0.MemDepUnit__1.conflictingLoads            0                       # Number of conflicting loads. (Count)
system.cpu0.MemDepUnit__1.conflictingStores            0                       # Number of conflicting stores. (Count)
system.cpu0.MemDepUnit__2.insertedLoads             0                       # Number of loads inserted to the mem dependence unit. (Count)
system.cpu0.MemDepUnit__2.insertedStores            0                       # Number of stores inserted to the mem dependence unit. (Count)
system.cpu0.MemDepUnit__2.conflictingLoads            0                       # Number of conflicting loads. (Count)
system.cpu0.MemDepUnit__2.conflictingStores            0                       # Number of conflicting stores. (Count)
system.cpu0.MemDepUnit__3.insertedLoads             0                       # Number of loads inserted to the mem dependence unit. (Count)
system.cpu0.MemDepUnit__3.insertedStores            0                       # Number of stores inserted to the mem dependence unit. (Count)
system.cpu0.MemDepUnit__3.conflictingLoads            0                       # Number of conflicting loads. (Count)
system.cpu0.MemDepUnit__3.conflictingStores            0                       # Number of conflicting stores. (Count)
system.cpu0.branchPred.lookups                7919834                       # Number of BP lookups (Count)
system.cpu0.branchPred.condPredicted          3715485                       # Number of conditional branches predicted (Count)
system.cpu0.branchPred.condIncorrect             1776                       # Number of conditional branches incorrect (Count)
system.cpu0.branchPred.BTBLookups             5811224                       # Number of BTB lookups (Count)
system.cpu0.branchPred.BTBHits                5809516                       # Number of BTB hits (Count)
system.cpu0.branchPred.BTBHitRatio           0.999706                       # BTB Hit Ratio (Ratio)
system.cpu0.branchPred.RASUsed                2100554                       # Number of times the RAS was used to get a target. (Count)
system.cpu0.branchPred.RASIncorrect                 2                       # Number of incorrect RAS predictions. (Count)
system.cpu0.branchPred.indirectLookups           1061                       # Number of indirect predictor lookups. (Count)
system.cpu0.branchPred.indirectHits               204                       # Number of indirect target hits. (Count)
system.cpu0.branchPred.indirectMisses             857                       # Number of indirect misses. (Count)
system.cpu0.branchPred.indirectMispredicted          177                       # Number of mispredicted indirect branches. (Count)
system.cpu0.commit.commitSquashedInsts         360402                       # The number of squashed insts skipped by commit (Count)
system.cpu0.commit.commitNonSpecStalls            819                       # The number of times commit has been forced to stall to communicate backwards (Count)
system.cpu0.commit.branchMispredicts             1340                       # The number of times a branch was mispredicted (Count)
system.cpu0.commit.numCommittedDist::samples    201065282                       # Number of insts commited each cycle (Count)
system.cpu0.commit.numCommittedDist::mean     1.088635                       # Number of insts commited each cycle (Count)
system.cpu0.commit.numCommittedDist::stdev     1.831207                       # Number of insts commited each cycle (Count)
system.cpu0.commit.numCommittedDist::underflows            0      0.00%      0.00% # Number of insts commited each cycle (Count)
system.cpu0.commit.numCommittedDist::0      105853034     52.65%     52.65% # Number of insts commited each cycle (Count)
system.cpu0.commit.numCommittedDist::1       54662090     27.19%     79.83% # Number of insts commited each cycle (Count)
system.cpu0.commit.numCommittedDist::2       10736623      5.34%     85.17% # Number of insts commited each cycle (Count)
system.cpu0.commit.numCommittedDist::3       13418428      6.67%     91.85% # Number of insts commited each cycle (Count)
system.cpu0.commit.numCommittedDist::4        4906231      2.44%     94.29% # Number of insts commited each cycle (Count)
system.cpu0.commit.numCommittedDist::5        2484735      1.24%     95.52% # Number of insts commited each cycle (Count)
system.cpu0.commit.numCommittedDist::6         525500      0.26%     95.78% # Number of insts commited each cycle (Count)
system.cpu0.commit.numCommittedDist::7         534626      0.27%     96.05% # Number of insts commited each cycle (Count)
system.cpu0.commit.numCommittedDist::8        7944015      3.95%    100.00% # Number of insts commited each cycle (Count)
system.cpu0.commit.numCommittedDist::overflows            0      0.00%    100.00% # Number of insts commited each cycle (Count)
system.cpu0.commit.numCommittedDist::min_value            0                       # Number of insts commited each cycle (Count)
system.cpu0.commit.numCommittedDist::max_value            8                       # Number of insts commited each cycle (Count)
system.cpu0.commit.numCommittedDist::total    201065282                       # Number of insts commited each cycle (Count)
system.cpu0.commit.instsCommitted           127014130                       # Number of instructions committed (Count)
system.cpu0.commit.opsCommitted             218886721                       # Number of ops (including micro ops) committed (Count)
system.cpu0.commit.memRefs                   26281036                       # Number of memory references committed (Count)
system.cpu0.commit.loads                     18913243                       # Number of loads committed (Count)
system.cpu0.commit.amos                             0                       # Number of atomic instructions committed (Count)
system.cpu0.commit.membars                        546                       # Number of memory barriers committed (Count)
system.cpu0.commit.branches                   7890817                       # Number of branches committed (Count)
system.cpu0.commit.vectorInstructions               0                       # Number of committed Vector instructions. (Count)
system.cpu0.commit.floating                 139988077                       # Number of committed floating point instructions. (Count)
system.cpu0.commit.integer                  103015700                       # Number of committed integer instructions. (Count)
system.cpu0.commit.functionCalls              2097833                       # Number of function calls committed. (Count)
system.cpu0.commit.committedInstType_0::No_OpClass      2098091      0.96%      0.96% # Class of committed instruction (Count)
system.cpu0.commit.committedInstType_0::IntAlu     88793771     40.57%     41.52% # Class of committed instruction (Count)
system.cpu0.commit.committedInstType_0::IntMult           89      0.00%     41.52% # Class of committed instruction (Count)
system.cpu0.commit.committedInstType_0::IntDiv          231      0.00%     41.52% # Class of committed instruction (Count)
system.cpu0.commit.committedInstType_0::FloatAdd      6291681      2.87%     44.40% # Class of committed instruction (Count)
system.cpu0.commit.committedInstType_0::FloatCmp            0      0.00%     44.40% # Class of committed instruction (Count)
system.cpu0.commit.committedInstType_0::FloatCvt            0      0.00%     44.40% # Class of committed instruction (Count)
system.cpu0.commit.committedInstType_0::FloatMult            0      0.00%     44.40% # Class of committed instruction (Count)
system.cpu0.commit.committedInstType_0::FloatMultAcc            0      0.00%     44.40% # Class of committed instruction (Count)
system.cpu0.commit.committedInstType_0::FloatDiv            0      0.00%     44.40% # Class of committed instruction (Count)
system.cpu0.commit.committedInstType_0::FloatMisc            0      0.00%     44.40% # Class of committed instruction (Count)
system.cpu0.commit.committedInstType_0::FloatSqrt            0      0.00%     44.40% # Class of committed instruction (Count)
system.cpu0.commit.committedInstType_0::SimdAdd            0      0.00%     44.40% # Class of committed instruction (Count)
system.cpu0.commit.committedInstType_0::SimdAddAcc            0      0.00%     44.40% # Class of committed instruction (Count)
system.cpu0.commit.committedInstType_0::SimdAlu     17826158      8.14%     52.54% # Class of committed instruction (Count)
system.cpu0.commit.committedInstType_0::SimdCmp            0      0.00%     52.54% # Class of committed instruction (Count)
system.cpu0.commit.committedInstType_0::SimdCvt          308      0.00%     52.54% # Class of committed instruction (Count)
system.cpu0.commit.committedInstType_0::SimdMisc     17302164      7.90%     60.45% # Class of committed instruction (Count)
system.cpu0.commit.committedInstType_0::SimdMult            0      0.00%     60.45% # Class of committed instruction (Count)
system.cpu0.commit.committedInstType_0::SimdMultAcc            0      0.00%     60.45% # Class of committed instruction (Count)
system.cpu0.commit.committedInstType_0::SimdShift            0      0.00%     60.45% # Class of committed instruction (Count)
system.cpu0.commit.committedInstType_0::SimdShiftAcc            0      0.00%     60.45% # Class of committed instruction (Count)
system.cpu0.commit.committedInstType_0::SimdDiv            0      0.00%     60.45% # Class of committed instruction (Count)
system.cpu0.commit.committedInstType_0::SimdSqrt            0      0.00%     60.45% # Class of committed instruction (Count)
system.cpu0.commit.committedInstType_0::SimdFloatAdd     14155794      6.47%     66.92% # Class of committed instruction (Count)
system.cpu0.commit.committedInstType_0::SimdFloatAlu            0      0.00%     66.92% # Class of committed instruction (Count)
system.cpu0.commit.committedInstType_0::SimdFloatCmp            0      0.00%     66.92% # Class of committed instruction (Count)
system.cpu0.commit.committedInstType_0::SimdFloatCvt     17825821      8.14%     75.06% # Class of committed instruction (Count)
system.cpu0.commit.committedInstType_0::SimdFloatDiv            0      0.00%     75.06% # Class of committed instruction (Count)
system.cpu0.commit.committedInstType_0::SimdFloatMisc            0      0.00%     75.06% # Class of committed instruction (Count)
system.cpu0.commit.committedInstType_0::SimdFloatMult     28311577     12.93%     87.99% # Class of committed instruction (Count)
system.cpu0.commit.committedInstType_0::SimdFloatMultAcc            0      0.00%     87.99% # Class of committed instruction (Count)
system.cpu0.commit.committedInstType_0::SimdFloatSqrt            0      0.00%     87.99% # Class of committed instruction (Count)
system.cpu0.commit.committedInstType_0::SimdReduceAdd            0      0.00%     87.99% # Class of committed instruction (Count)
system.cpu0.commit.committedInstType_0::SimdReduceAlu            0      0.00%     87.99% # Class of committed instruction (Count)
system.cpu0.commit.committedInstType_0::SimdReduceCmp            0      0.00%     87.99% # Class of committed instruction (Count)
system.cpu0.commit.committedInstType_0::SimdFloatReduceAdd            0      0.00%     87.99% # Class of committed instruction (Count)
system.cpu0.commit.committedInstType_0::SimdFloatReduceCmp            0      0.00%     87.99% # Class of committed instruction (Count)
system.cpu0.commit.committedInstType_0::SimdAes            0      0.00%     87.99% # Class of committed instruction (Count)
system.cpu0.commit.committedInstType_0::SimdAesMix            0      0.00%     87.99% # Class of committed instruction (Count)
system.cpu0.commit.committedInstType_0::SimdSha1Hash            0      0.00%     87.99% # Class of committed instruction (Count)
system.cpu0.commit.committedInstType_0::SimdSha1Hash2            0      0.00%     87.99% # Class of committed instruction (Count)
system.cpu0.commit.committedInstType_0::SimdSha256Hash            0      0.00%     87.99% # Class of committed instruction (Count)
system.cpu0.commit.committedInstType_0::SimdSha256Hash2            0      0.00%     87.99% # Class of committed instruction (Count)
system.cpu0.commit.committedInstType_0::SimdShaSigma2            0      0.00%     87.99% # Class of committed instruction (Count)
system.cpu0.commit.committedInstType_0::SimdShaSigma3            0      0.00%     87.99% # Class of committed instruction (Count)
system.cpu0.commit.committedInstType_0::SimdPredAlu            0      0.00%     87.99% # Class of committed instruction (Count)
system.cpu0.commit.committedInstType_0::MemRead      9999948      4.57%     92.56% # Class of committed instruction (Count)
system.cpu0.commit.committedInstType_0::MemWrite      7366990      3.37%     95.93% # Class of committed instruction (Count)
system.cpu0.commit.committedInstType_0::FloatMemRead      8913295      4.07%    100.00% # Class of committed instruction (Count)
system.cpu0.commit.committedInstType_0::FloatMemWrite          803      0.00%    100.00% # Class of committed instruction (Count)
system.cpu0.commit.committedInstType_0::IprAccess            0      0.00%    100.00% # Class of committed instruction (Count)
system.cpu0.commit.committedInstType_0::InstPrefetch            0      0.00%    100.00% # Class of committed instruction (Count)
system.cpu0.commit.committedInstType_0::total    218886721                       # Class of committed instruction (Count)
system.cpu0.commit.commitEligibleSamples      7944015                       # number cycles where commit BW limit reached (Cycle)
system.cpu0.dcache.demandHits::cpu0.data     20331977                       # number of demand (read+write) hits (Count)
system.cpu0.dcache.demandHits::total         20331977                       # number of demand (read+write) hits (Count)
system.cpu0.dcache.overallHits::cpu0.data     20331977                       # number of overall hits (Count)
system.cpu0.dcache.overallHits::total        20331977                       # number of overall hits (Count)
system.cpu0.dcache.demandMisses::cpu0.data      3617031                       # number of demand (read+write) misses (Count)
system.cpu0.dcache.demandMisses::total        3617031                       # number of demand (read+write) misses (Count)
system.cpu0.dcache.overallMisses::cpu0.data      3617031                       # number of overall misses (Count)
system.cpu0.dcache.overallMisses::total       3617031                       # number of overall misses (Count)
system.cpu0.dcache.demandMissLatency::cpu0.data 218579550316                       # number of demand (read+write) miss ticks (Tick)
system.cpu0.dcache.demandMissLatency::total 218579550316                       # number of demand (read+write) miss ticks (Tick)
system.cpu0.dcache.overallMissLatency::cpu0.data 218579550316                       # number of overall miss ticks (Tick)
system.cpu0.dcache.overallMissLatency::total 218579550316                       # number of overall miss ticks (Tick)
system.cpu0.dcache.demandAccesses::cpu0.data     23949008                       # number of demand (read+write) accesses (Count)
system.cpu0.dcache.demandAccesses::total     23949008                       # number of demand (read+write) accesses (Count)
system.cpu0.dcache.overallAccesses::cpu0.data     23949008                       # number of overall (read+write) accesses (Count)
system.cpu0.dcache.overallAccesses::total     23949008                       # number of overall (read+write) accesses (Count)
system.cpu0.dcache.demandMissRate::cpu0.data     0.151031                       # miss rate for demand accesses (Ratio)
system.cpu0.dcache.demandMissRate::total     0.151031                       # miss rate for demand accesses (Ratio)
system.cpu0.dcache.overallMissRate::cpu0.data     0.151031                       # miss rate for overall accesses (Ratio)
system.cpu0.dcache.overallMissRate::total     0.151031                       # miss rate for overall accesses (Ratio)
system.cpu0.dcache.demandAvgMissLatency::cpu0.data 60430.654400                       # average overall miss latency in ticks ((Tick/Count))
system.cpu0.dcache.demandAvgMissLatency::total 60430.654400                       # average overall miss latency in ticks ((Tick/Count))
system.cpu0.dcache.overallAvgMissLatency::cpu0.data 60430.654400                       # average overall miss latency ((Tick/Count))
system.cpu0.dcache.overallAvgMissLatency::total 60430.654400                       # average overall miss latency ((Tick/Count))
system.cpu0.dcache.blockedCycles::no_mshrs         4841                       # number of cycles access was blocked (Cycle)
system.cpu0.dcache.blockedCycles::no_targets            0                       # number of cycles access was blocked (Cycle)
system.cpu0.dcache.blockedCauses::no_mshrs           76                       # number of times access was blocked (Count)
system.cpu0.dcache.blockedCauses::no_targets            0                       # number of times access was blocked (Count)
system.cpu0.dcache.avgBlocked::no_mshrs     63.697368                       # average number of cycles each access was blocked ((Cycle/Count))
system.cpu0.dcache.avgBlocked::no_targets          nan                       # average number of cycles each access was blocked ((Cycle/Count))
system.cpu0.dcache.writebacks::writebacks       971008                       # number of writebacks (Count)
system.cpu0.dcache.writebacks::total           971008                       # number of writebacks (Count)
system.cpu0.dcache.demandMshrHits::cpu0.data      2251224                       # number of demand (read+write) MSHR hits (Count)
system.cpu0.dcache.demandMshrHits::total      2251224                       # number of demand (read+write) MSHR hits (Count)
system.cpu0.dcache.overallMshrHits::cpu0.data      2251224                       # number of overall MSHR hits (Count)
system.cpu0.dcache.overallMshrHits::total      2251224                       # number of overall MSHR hits (Count)
system.cpu0.dcache.demandMshrMisses::cpu0.data      1365807                       # number of demand (read+write) MSHR misses (Count)
system.cpu0.dcache.demandMshrMisses::total      1365807                       # number of demand (read+write) MSHR misses (Count)
system.cpu0.dcache.overallMshrMisses::cpu0.data      1365807                       # number of overall MSHR misses (Count)
system.cpu0.dcache.overallMshrMisses::total      1365807                       # number of overall MSHR misses (Count)
system.cpu0.dcache.demandMshrMissLatency::cpu0.data  70628957008                       # number of demand (read+write) MSHR miss ticks (Tick)
system.cpu0.dcache.demandMshrMissLatency::total  70628957008                       # number of demand (read+write) MSHR miss ticks (Tick)
system.cpu0.dcache.overallMshrMissLatency::cpu0.data  70628957008                       # number of overall MSHR miss ticks (Tick)
system.cpu0.dcache.overallMshrMissLatency::total  70628957008                       # number of overall MSHR miss ticks (Tick)
system.cpu0.dcache.demandMshrMissRate::cpu0.data     0.057030                       # mshr miss ratio for demand accesses (Ratio)
system.cpu0.dcache.demandMshrMissRate::total     0.057030                       # mshr miss ratio for demand accesses (Ratio)
system.cpu0.dcache.overallMshrMissRate::cpu0.data     0.057030                       # mshr miss ratio for overall accesses (Ratio)
system.cpu0.dcache.overallMshrMissRate::total     0.057030                       # mshr miss ratio for overall accesses (Ratio)
system.cpu0.dcache.demandAvgMshrMissLatency::cpu0.data 51712.252908                       # average overall mshr miss latency ((Tick/Count))
system.cpu0.dcache.demandAvgMshrMissLatency::total 51712.252908                       # average overall mshr miss latency ((Tick/Count))
system.cpu0.dcache.overallAvgMshrMissLatency::cpu0.data 51712.252908                       # average overall mshr miss latency ((Tick/Count))
system.cpu0.dcache.overallAvgMshrMissLatency::total 51712.252908                       # average overall mshr miss latency ((Tick/Count))
system.cpu0.dcache.replacements               1361026                       # number of replacements (Count)
system.cpu0.dcache.replacement_distribution::samples      1361026                       # A distribution over execution time of replacements (Unspecified)
system.cpu0.dcache.replacement_distribution::mean 42822360704.878822                       # A distribution over execution time of replacements (Unspecified)
system.cpu0.dcache.replacement_distribution::gmean 40177006670.957382                       # A distribution over execution time of replacements (Unspecified)
system.cpu0.dcache.replacement_distribution::stdev 12118167602.389765                       # A distribution over execution time of replacements (Unspecified)
system.cpu0.dcache.replacement_distribution::0-4.29497e+09        10526      0.77%      0.77% # A distribution over execution time of replacements (Unspecified)
system.cpu0.dcache.replacement_distribution::4.29497e+09-8.58993e+09        10875      0.80%      1.57% # A distribution over execution time of replacements (Unspecified)
system.cpu0.dcache.replacement_distribution::8.58993e+09-1.28849e+10        10874      0.80%      2.37% # A distribution over execution time of replacements (Unspecified)
system.cpu0.dcache.replacement_distribution::1.28849e+10-1.71799e+10        10875      0.80%      3.17% # A distribution over execution time of replacements (Unspecified)
system.cpu0.dcache.replacement_distribution::1.71799e+10-2.14748e+10        10874      0.80%      3.97% # A distribution over execution time of replacements (Unspecified)
system.cpu0.dcache.replacement_distribution::2.14748e+10-2.57698e+10        10873      0.80%      4.77% # A distribution over execution time of replacements (Unspecified)
system.cpu0.dcache.replacement_distribution::2.57698e+10-3.00648e+10        79145      5.82%     10.58% # A distribution over execution time of replacements (Unspecified)
system.cpu0.dcache.replacement_distribution::3.00648e+10-3.43597e+10       196268     14.42%     25.00% # A distribution over execution time of replacements (Unspecified)
system.cpu0.dcache.replacement_distribution::3.43597e+10-3.86547e+10       183986     13.52%     38.52% # A distribution over execution time of replacements (Unspecified)
system.cpu0.dcache.replacement_distribution::3.86547e+10-4.29497e+10       141625     10.41%     48.93% # A distribution over execution time of replacements (Unspecified)
system.cpu0.dcache.replacement_distribution::4.29497e+10-4.72446e+10       165082     12.13%     61.06% # A distribution over execution time of replacements (Unspecified)
system.cpu0.dcache.replacement_distribution::4.72446e+10-5.15396e+10       182970     13.44%     74.50% # A distribution over execution time of replacements (Unspecified)
system.cpu0.dcache.replacement_distribution::5.15396e+10-5.58346e+10       166339     12.22%     86.72% # A distribution over execution time of replacements (Unspecified)
system.cpu0.dcache.replacement_distribution::5.58346e+10-6.01295e+10        80295      5.90%     92.62% # A distribution over execution time of replacements (Unspecified)
system.cpu0.dcache.replacement_distribution::6.01295e+10-6.44245e+10        62820      4.62%     97.24% # A distribution over execution time of replacements (Unspecified)
system.cpu0.dcache.replacement_distribution::6.44245e+10-6.87195e+10        37599      2.76%    100.00% # A distribution over execution time of replacements (Unspecified)
system.cpu0.dcache.replacement_distribution::6.87195e+10-7.30144e+10            0      0.00%    100.00% # A distribution over execution time of replacements (Unspecified)
system.cpu0.dcache.replacement_distribution::7.30144e+10-7.73094e+10            0      0.00%    100.00% # A distribution over execution time of replacements (Unspecified)
system.cpu0.dcache.replacement_distribution::7.73094e+10-8.16044e+10            0      0.00%    100.00% # A distribution over execution time of replacements (Unspecified)
system.cpu0.dcache.replacement_distribution::8.16044e+10-8.58993e+10            0      0.00%    100.00% # A distribution over execution time of replacements (Unspecified)
system.cpu0.dcache.replacement_distribution::total      1361026                       # A distribution over execution time of replacements (Unspecified)
system.cpu0.dcache.LockedRMWReadReq.hits::cpu0.data          225                       # number of LockedRMWReadReq hits (Count)
system.cpu0.dcache.LockedRMWReadReq.hits::total          225                       # number of LockedRMWReadReq hits (Count)
system.cpu0.dcache.LockedRMWReadReq.misses::cpu0.data           48                       # number of LockedRMWReadReq misses (Count)
system.cpu0.dcache.LockedRMWReadReq.misses::total           48                       # number of LockedRMWReadReq misses (Count)
system.cpu0.dcache.LockedRMWReadReq.missLatency::cpu0.data      1304361                       # number of LockedRMWReadReq miss ticks (Tick)
system.cpu0.dcache.LockedRMWReadReq.missLatency::total      1304361                       # number of LockedRMWReadReq miss ticks (Tick)
system.cpu0.dcache.LockedRMWReadReq.accesses::cpu0.data          273                       # number of LockedRMWReadReq accesses(hits+misses) (Count)
system.cpu0.dcache.LockedRMWReadReq.accesses::total          273                       # number of LockedRMWReadReq accesses(hits+misses) (Count)
system.cpu0.dcache.LockedRMWReadReq.missRate::cpu0.data     0.175824                       # miss rate for LockedRMWReadReq accesses (Ratio)
system.cpu0.dcache.LockedRMWReadReq.missRate::total     0.175824                       # miss rate for LockedRMWReadReq accesses (Ratio)
system.cpu0.dcache.LockedRMWReadReq.avgMissLatency::cpu0.data 27174.187500                       # average LockedRMWReadReq miss latency ((Tick/Count))
system.cpu0.dcache.LockedRMWReadReq.avgMissLatency::total 27174.187500                       # average LockedRMWReadReq miss latency ((Tick/Count))
system.cpu0.dcache.LockedRMWReadReq.mshrMisses::cpu0.data           48                       # number of LockedRMWReadReq MSHR misses (Count)
system.cpu0.dcache.LockedRMWReadReq.mshrMisses::total           48                       # number of LockedRMWReadReq MSHR misses (Count)
system.cpu0.dcache.LockedRMWReadReq.mshrMissLatency::cpu0.data      3325338                       # number of LockedRMWReadReq MSHR miss ticks (Tick)
system.cpu0.dcache.LockedRMWReadReq.mshrMissLatency::total      3325338                       # number of LockedRMWReadReq MSHR miss ticks (Tick)
system.cpu0.dcache.LockedRMWReadReq.mshrMissRate::cpu0.data     0.175824                       # mshr miss rate for LockedRMWReadReq accesses (Ratio)
system.cpu0.dcache.LockedRMWReadReq.mshrMissRate::total     0.175824                       # mshr miss rate for LockedRMWReadReq accesses (Ratio)
system.cpu0.dcache.LockedRMWReadReq.avgMshrMissLatency::cpu0.data 69277.875000                       # average LockedRMWReadReq mshr miss latency ((Tick/Count))
system.cpu0.dcache.LockedRMWReadReq.avgMshrMissLatency::total 69277.875000                       # average LockedRMWReadReq mshr miss latency ((Tick/Count))
system.cpu0.dcache.LockedRMWWriteReq.hits::cpu0.data          273                       # number of LockedRMWWriteReq hits (Count)
system.cpu0.dcache.LockedRMWWriteReq.hits::total          273                       # number of LockedRMWWriteReq hits (Count)
system.cpu0.dcache.LockedRMWWriteReq.accesses::cpu0.data          273                       # number of LockedRMWWriteReq accesses(hits+misses) (Count)
system.cpu0.dcache.LockedRMWWriteReq.accesses::total          273                       # number of LockedRMWWriteReq accesses(hits+misses) (Count)
system.cpu0.dcache.ReadReq.hits::cpu0.data     13870967                       # number of ReadReq hits (Count)
system.cpu0.dcache.ReadReq.hits::total       13870967                       # number of ReadReq hits (Count)
system.cpu0.dcache.ReadReq.misses::cpu0.data      2710508                       # number of ReadReq misses (Count)
system.cpu0.dcache.ReadReq.misses::total      2710508                       # number of ReadReq misses (Count)
system.cpu0.dcache.ReadReq.missLatency::cpu0.data 184140873135                       # number of ReadReq miss ticks (Tick)
system.cpu0.dcache.ReadReq.missLatency::total 184140873135                       # number of ReadReq miss ticks (Tick)
system.cpu0.dcache.ReadReq.accesses::cpu0.data     16581475                       # number of ReadReq accesses(hits+misses) (Count)
system.cpu0.dcache.ReadReq.accesses::total     16581475                       # number of ReadReq accesses(hits+misses) (Count)
system.cpu0.dcache.ReadReq.missRate::cpu0.data     0.163466                       # miss rate for ReadReq accesses (Ratio)
system.cpu0.dcache.ReadReq.missRate::total     0.163466                       # miss rate for ReadReq accesses (Ratio)
system.cpu0.dcache.ReadReq.avgMissLatency::cpu0.data 67935.926821                       # average ReadReq miss latency ((Tick/Count))
system.cpu0.dcache.ReadReq.avgMissLatency::total 67935.926821                       # average ReadReq miss latency ((Tick/Count))
system.cpu0.dcache.ReadReq.mshrHits::cpu0.data      2251218                       # number of ReadReq MSHR hits (Count)
system.cpu0.dcache.ReadReq.mshrHits::total      2251218                       # number of ReadReq MSHR hits (Count)
system.cpu0.dcache.ReadReq.mshrMisses::cpu0.data       459290                       # number of ReadReq MSHR misses (Count)
system.cpu0.dcache.ReadReq.mshrMisses::total       459290                       # number of ReadReq MSHR misses (Count)
system.cpu0.dcache.ReadReq.mshrMissLatency::cpu0.data  36794363805                       # number of ReadReq MSHR miss ticks (Tick)
system.cpu0.dcache.ReadReq.mshrMissLatency::total  36794363805                       # number of ReadReq MSHR miss ticks (Tick)
system.cpu0.dcache.ReadReq.mshrMissRate::cpu0.data     0.027699                       # mshr miss rate for ReadReq accesses (Ratio)
system.cpu0.dcache.ReadReq.mshrMissRate::total     0.027699                       # mshr miss rate for ReadReq accesses (Ratio)
system.cpu0.dcache.ReadReq.avgMshrMissLatency::cpu0.data 80111.397603                       # average ReadReq mshr miss latency ((Tick/Count))
system.cpu0.dcache.ReadReq.avgMshrMissLatency::total 80111.397603                       # average ReadReq mshr miss latency ((Tick/Count))
system.cpu0.dcache.WriteReq.hits::cpu0.data      6461010                       # number of WriteReq hits (Count)
system.cpu0.dcache.WriteReq.hits::total       6461010                       # number of WriteReq hits (Count)
system.cpu0.dcache.WriteReq.misses::cpu0.data       906523                       # number of WriteReq misses (Count)
system.cpu0.dcache.WriteReq.misses::total       906523                       # number of WriteReq misses (Count)
system.cpu0.dcache.WriteReq.missLatency::cpu0.data  34438677181                       # number of WriteReq miss ticks (Tick)
system.cpu0.dcache.WriteReq.missLatency::total  34438677181                       # number of WriteReq miss ticks (Tick)
system.cpu0.dcache.WriteReq.accesses::cpu0.data      7367533                       # number of WriteReq accesses(hits+misses) (Count)
system.cpu0.dcache.WriteReq.accesses::total      7367533                       # number of WriteReq accesses(hits+misses) (Count)
system.cpu0.dcache.WriteReq.missRate::cpu0.data     0.123043                       # miss rate for WriteReq accesses (Ratio)
system.cpu0.dcache.WriteReq.missRate::total     0.123043                       # miss rate for WriteReq accesses (Ratio)
system.cpu0.dcache.WriteReq.avgMissLatency::cpu0.data 37989.854842                       # average WriteReq miss latency ((Tick/Count))
system.cpu0.dcache.WriteReq.avgMissLatency::total 37989.854842                       # average WriteReq miss latency ((Tick/Count))
system.cpu0.dcache.WriteReq.mshrHits::cpu0.data            6                       # number of WriteReq MSHR hits (Count)
system.cpu0.dcache.WriteReq.mshrHits::total            6                       # number of WriteReq MSHR hits (Count)
system.cpu0.dcache.WriteReq.mshrMisses::cpu0.data       906517                       # number of WriteReq MSHR misses (Count)
system.cpu0.dcache.WriteReq.mshrMisses::total       906517                       # number of WriteReq MSHR misses (Count)
system.cpu0.dcache.WriteReq.mshrMissLatency::cpu0.data  33834593203                       # number of WriteReq MSHR miss ticks (Tick)
system.cpu0.dcache.WriteReq.mshrMissLatency::total  33834593203                       # number of WriteReq MSHR miss ticks (Tick)
system.cpu0.dcache.WriteReq.mshrMissRate::cpu0.data     0.123042                       # mshr miss rate for WriteReq accesses (Ratio)
system.cpu0.dcache.WriteReq.mshrMissRate::total     0.123042                       # mshr miss rate for WriteReq accesses (Ratio)
system.cpu0.dcache.WriteReq.avgMshrMissLatency::cpu0.data 37323.727192                       # average WriteReq mshr miss latency ((Tick/Count))
system.cpu0.dcache.WriteReq.avgMshrMissLatency::total 37323.727192                       # average WriteReq mshr miss latency ((Tick/Count))
system.cpu0.dcache.power_state.pwrStateResidencyTicks::UNDEFINED  67099398102                       # Cumulative time (in ticks) in various power states (Tick)
system.cpu0.dcache.prefectcher.demandMshrMisses            0                       # demands not covered by prefetchs (Count)
system.cpu0.dcache.prefectcher.pfIssued             0                       # number of hwpf issued (Count)
system.cpu0.dcache.prefectcher.pfUseful             0                       # number of useful prefetch (Count)
system.cpu0.dcache.prefectcher.pfUsefulButMiss            0                       # number of hit on prefetch but cache block is not in an usable state (Count)
system.cpu0.dcache.prefectcher.accuracy           nan                       # accuracy of the prefetcher (Count)
system.cpu0.dcache.prefectcher.coverage           nan                       # coverage brought by this prefetcher (Count)
system.cpu0.dcache.prefectcher.pfHitInCache            0                       # number of prefetches hitting in cache (Count)
system.cpu0.dcache.prefectcher.pfHitInMSHR            0                       # number of prefetches hitting in a MSHR (Count)
system.cpu0.dcache.prefectcher.pfHitInWB            0                       # number of prefetches hit in the Write Buffer (Count)
system.cpu0.dcache.prefectcher.pfLate               0                       # number of late prefetches (hitting in cache, MSHR or WB) (Count)
system.cpu0.dcache.prefectcher.pfIdentified            0                       # number of prefetch candidates identified (Count)
system.cpu0.dcache.prefectcher.pfBufferHit            0                       # number of redundant prefetches already in prefetch queue (Count)
system.cpu0.dcache.prefectcher.pfInCache            0                       # number of redundant prefetches already in cache/mshr dropped (Count)
system.cpu0.dcache.prefectcher.pfRemovedDemand            0                       # number of prefetches dropped due to a demand for the same address (Count)
system.cpu0.dcache.prefectcher.pfRemovedFull            0                       # number of prefetches dropped due to prefetch queue size (Count)
system.cpu0.dcache.prefectcher.pfSpanPage            0                       # number of prefetches that crossed the page (Count)
system.cpu0.dcache.prefectcher.pfUsefulSpanPage            0                       # number of prefetches that is useful and crossed the page (Count)
system.cpu0.dcache.prefectcher.power_state.pwrStateResidencyTicks::UNDEFINED  67099398102                       # Cumulative time (in ticks) in various power states (Tick)
system.cpu0.dcache.prefectcher.table_indexing_policy.tagAccessHist::samples            0                       # Histogram of set associative cache access per tag (Count)
system.cpu0.dcache.prefectcher.table_indexing_policy.tagAccessHist::0            0                       # Histogram of set associative cache access per tag (Count)
system.cpu0.dcache.prefectcher.table_indexing_policy.tagAccessHist::1            0                       # Histogram of set associative cache access per tag (Count)
system.cpu0.dcache.prefectcher.table_indexing_policy.tagAccessHist::2            0                       # Histogram of set associative cache access per tag (Count)
system.cpu0.dcache.prefectcher.table_indexing_policy.tagAccessHist::3            0                       # Histogram of set associative cache access per tag (Count)
system.cpu0.dcache.prefectcher.table_indexing_policy.tagAccessHist::4            0                       # Histogram of set associative cache access per tag (Count)
system.cpu0.dcache.prefectcher.table_indexing_policy.tagAccessHist::5            0                       # Histogram of set associative cache access per tag (Count)
system.cpu0.dcache.prefectcher.table_indexing_policy.tagAccessHist::6            0                       # Histogram of set associative cache access per tag (Count)
system.cpu0.dcache.prefectcher.table_indexing_policy.tagAccessHist::7            0                       # Histogram of set associative cache access per tag (Count)
system.cpu0.dcache.prefectcher.table_indexing_policy.tagAccessHist::8            0                       # Histogram of set associative cache access per tag (Count)
system.cpu0.dcache.prefectcher.table_indexing_policy.tagAccessHist::9            0                       # Histogram of set associative cache access per tag (Count)
system.cpu0.dcache.prefectcher.table_indexing_policy.tagAccessHist::10            0                       # Histogram of set associative cache access per tag (Count)
system.cpu0.dcache.prefectcher.table_indexing_policy.tagAccessHist::11            0                       # Histogram of set associative cache access per tag (Count)
system.cpu0.dcache.prefectcher.table_indexing_policy.tagAccessHist::12            0                       # Histogram of set associative cache access per tag (Count)
system.cpu0.dcache.prefectcher.table_indexing_policy.tagAccessHist::13            0                       # Histogram of set associative cache access per tag (Count)
system.cpu0.dcache.prefectcher.table_indexing_policy.tagAccessHist::14            0                       # Histogram of set associative cache access per tag (Count)
system.cpu0.dcache.prefectcher.table_indexing_policy.tagAccessHist::15            0                       # Histogram of set associative cache access per tag (Count)
system.cpu0.dcache.prefectcher.table_indexing_policy.tagAccessHist::16            0                       # Histogram of set associative cache access per tag (Count)
system.cpu0.dcache.prefectcher.table_indexing_policy.tagAccessHist::17            0                       # Histogram of set associative cache access per tag (Count)
system.cpu0.dcache.prefectcher.table_indexing_policy.tagAccessHist::18            0                       # Histogram of set associative cache access per tag (Count)
system.cpu0.dcache.prefectcher.table_indexing_policy.tagAccessHist::19            0                       # Histogram of set associative cache access per tag (Count)
system.cpu0.dcache.prefectcher.table_indexing_policy.tagAccessHist::20            0                       # Histogram of set associative cache access per tag (Count)
system.cpu0.dcache.prefectcher.table_indexing_policy.tagAccessHist::21            0                       # Histogram of set associative cache access per tag (Count)
system.cpu0.dcache.prefectcher.table_indexing_policy.tagAccessHist::22            0                       # Histogram of set associative cache access per tag (Count)
system.cpu0.dcache.prefectcher.table_indexing_policy.tagAccessHist::23            0                       # Histogram of set associative cache access per tag (Count)
system.cpu0.dcache.prefectcher.table_indexing_policy.tagAccessHist::24            0                       # Histogram of set associative cache access per tag (Count)
system.cpu0.dcache.prefectcher.table_indexing_policy.tagAccessHist::25            0                       # Histogram of set associative cache access per tag (Count)
system.cpu0.dcache.prefectcher.table_indexing_policy.tagAccessHist::26            0                       # Histogram of set associative cache access per tag (Count)
system.cpu0.dcache.prefectcher.table_indexing_policy.tagAccessHist::27            0                       # Histogram of set associative cache access per tag (Count)
system.cpu0.dcache.prefectcher.table_indexing_policy.tagAccessHist::28            0                       # Histogram of set associative cache access per tag (Count)
system.cpu0.dcache.prefectcher.table_indexing_policy.tagAccessHist::29            0                       # Histogram of set associative cache access per tag (Count)
system.cpu0.dcache.prefectcher.table_indexing_policy.tagAccessHist::30            0                       # Histogram of set associative cache access per tag (Count)
system.cpu0.dcache.prefectcher.table_indexing_policy.tagAccessHist::31            0                       # Histogram of set associative cache access per tag (Count)
system.cpu0.dcache.prefectcher.table_indexing_policy.tagAccessHist::32            0                       # Histogram of set associative cache access per tag (Count)
system.cpu0.dcache.prefectcher.table_indexing_policy.tagAccessHist::33            0                       # Histogram of set associative cache access per tag (Count)
system.cpu0.dcache.prefectcher.table_indexing_policy.tagAccessHist::34            0                       # Histogram of set associative cache access per tag (Count)
system.cpu0.dcache.prefectcher.table_indexing_policy.tagAccessHist::35            0                       # Histogram of set associative cache access per tag (Count)
system.cpu0.dcache.prefectcher.table_indexing_policy.tagAccessHist::36            0                       # Histogram of set associative cache access per tag (Count)
system.cpu0.dcache.prefectcher.table_indexing_policy.tagAccessHist::37            0                       # Histogram of set associative cache access per tag (Count)
system.cpu0.dcache.prefectcher.table_indexing_policy.tagAccessHist::38            0                       # Histogram of set associative cache access per tag (Count)
system.cpu0.dcache.prefectcher.table_indexing_policy.tagAccessHist::39            0                       # Histogram of set associative cache access per tag (Count)
system.cpu0.dcache.prefectcher.table_indexing_policy.tagAccessHist::40            0                       # Histogram of set associative cache access per tag (Count)
system.cpu0.dcache.prefectcher.table_indexing_policy.tagAccessHist::41            0                       # Histogram of set associative cache access per tag (Count)
system.cpu0.dcache.prefectcher.table_indexing_policy.tagAccessHist::42            0                       # Histogram of set associative cache access per tag (Count)
system.cpu0.dcache.prefectcher.table_indexing_policy.tagAccessHist::43            0                       # Histogram of set associative cache access per tag (Count)
system.cpu0.dcache.prefectcher.table_indexing_policy.tagAccessHist::44            0                       # Histogram of set associative cache access per tag (Count)
system.cpu0.dcache.prefectcher.table_indexing_policy.tagAccessHist::45            0                       # Histogram of set associative cache access per tag (Count)
system.cpu0.dcache.prefectcher.table_indexing_policy.tagAccessHist::46            0                       # Histogram of set associative cache access per tag (Count)
system.cpu0.dcache.prefectcher.table_indexing_policy.tagAccessHist::47            0                       # Histogram of set associative cache access per tag (Count)
system.cpu0.dcache.prefectcher.table_indexing_policy.tagAccessHist::48            0                       # Histogram of set associative cache access per tag (Count)
system.cpu0.dcache.prefectcher.table_indexing_policy.tagAccessHist::49            0                       # Histogram of set associative cache access per tag (Count)
system.cpu0.dcache.prefectcher.table_indexing_policy.tagAccessHist::50            0                       # Histogram of set associative cache access per tag (Count)
system.cpu0.dcache.prefectcher.table_indexing_policy.tagAccessHist::51            0                       # Histogram of set associative cache access per tag (Count)
system.cpu0.dcache.prefectcher.table_indexing_policy.tagAccessHist::52            0                       # Histogram of set associative cache access per tag (Count)
system.cpu0.dcache.prefectcher.table_indexing_policy.tagAccessHist::53            0                       # Histogram of set associative cache access per tag (Count)
system.cpu0.dcache.prefectcher.table_indexing_policy.tagAccessHist::54            0                       # Histogram of set associative cache access per tag (Count)
system.cpu0.dcache.prefectcher.table_indexing_policy.tagAccessHist::55            0                       # Histogram of set associative cache access per tag (Count)
system.cpu0.dcache.prefectcher.table_indexing_policy.tagAccessHist::56            0                       # Histogram of set associative cache access per tag (Count)
system.cpu0.dcache.prefectcher.table_indexing_policy.tagAccessHist::57            0                       # Histogram of set associative cache access per tag (Count)
system.cpu0.dcache.prefectcher.table_indexing_policy.tagAccessHist::58            0                       # Histogram of set associative cache access per tag (Count)
system.cpu0.dcache.prefectcher.table_indexing_policy.tagAccessHist::59            0                       # Histogram of set associative cache access per tag (Count)
system.cpu0.dcache.prefectcher.table_indexing_policy.tagAccessHist::60            0                       # Histogram of set associative cache access per tag (Count)
system.cpu0.dcache.prefectcher.table_indexing_policy.tagAccessHist::61            0                       # Histogram of set associative cache access per tag (Count)
system.cpu0.dcache.prefectcher.table_indexing_policy.tagAccessHist::62            0                       # Histogram of set associative cache access per tag (Count)
system.cpu0.dcache.prefectcher.table_indexing_policy.tagAccessHist::63            0                       # Histogram of set associative cache access per tag (Count)
system.cpu0.dcache.prefectcher.table_indexing_policy.tagAccessHist::total            0                       # Histogram of set associative cache access per tag (Count)
system.cpu0.dcache.tags.tagsInUse          511.537048                       # Average ticks per tags in use ((Tick/Count))
system.cpu0.dcache.tags.totalRefs            21698414                       # Total number of references to valid blocks. (Count)
system.cpu0.dcache.tags.sampledRefs           1363598                       # Sample count of references to valid blocks. (Count)
system.cpu0.dcache.tags.avgRefs             15.912618                       # Average number of references to valid blocks. ((Count/Count))
system.cpu0.dcache.tags.warmupTick             187146                       # The tick when the warmup percentage was hit. (Tick)
system.cpu0.dcache.tags.occupancies::cpu0.data   511.537048                       # Average occupied blocks per tick, per requestor ((Count/Tick))
system.cpu0.dcache.tags.avgOccs::cpu0.data     0.999096                       # Average percentage of cache occupancy ((Ratio/Tick))
system.cpu0.dcache.tags.avgOccs::total       0.999096                       # Average percentage of cache occupancy ((Ratio/Tick))
system.cpu0.dcache.tags.occupanciesTaskId::1024          511                       # Occupied blocks per task id (Count)
system.cpu0.dcache.tags.ageTaskId_1024::0           29                       # Occupied blocks per task id, per block age (Count)
system.cpu0.dcache.tags.ageTaskId_1024::1          475                       # Occupied blocks per task id, per block age (Count)
system.cpu0.dcache.tags.ageTaskId_1024::2            1                       # Occupied blocks per task id, per block age (Count)
system.cpu0.dcache.tags.ageTaskId_1024::3            6                       # Occupied blocks per task id, per block age (Count)
system.cpu0.dcache.tags.ratioOccsTaskId::1024     0.998047                       # Ratio of occupied blocks and all blocks, per task id (Ratio)
system.cpu0.dcache.tags.tagAccesses         192960030                       # Number of tag accesses (Count)
system.cpu0.dcache.tags.dataAccesses        192960030                       # Number of data accesses (Count)
system.cpu0.dcache.tags.set_misses_dist::samples      6456597                       # Number of misses for this cache set. (Count)
system.cpu0.dcache.tags.set_misses_dist::mean    31.571844                       # Number of misses for this cache set. (Count)
system.cpu0.dcache.tags.set_misses_dist::gmean            0                       # Number of misses for this cache set. (Count)
system.cpu0.dcache.tags.set_misses_dist::stdev    18.477778                       # Number of misses for this cache set. (Count)
system.cpu0.dcache.tags.set_misses_dist::0       100002      1.55%      1.55% # Number of misses for this cache set. (Count)
system.cpu0.dcache.tags.set_misses_dist::1        99014      1.53%      3.08% # Number of misses for this cache set. (Count)
system.cpu0.dcache.tags.set_misses_dist::2       100547      1.56%      4.64% # Number of misses for this cache set. (Count)
system.cpu0.dcache.tags.set_misses_dist::3       100186      1.55%      6.19% # Number of misses for this cache set. (Count)
system.cpu0.dcache.tags.set_misses_dist::4        99901      1.55%      7.74% # Number of misses for this cache set. (Count)
system.cpu0.dcache.tags.set_misses_dist::5       100097      1.55%      9.29% # Number of misses for this cache set. (Count)
system.cpu0.dcache.tags.set_misses_dist::6       100855      1.56%     10.85% # Number of misses for this cache set. (Count)
system.cpu0.dcache.tags.set_misses_dist::7       100766      1.56%     12.41% # Number of misses for this cache set. (Count)
system.cpu0.dcache.tags.set_misses_dist::8       101226      1.57%     13.98% # Number of misses for this cache set. (Count)
system.cpu0.dcache.tags.set_misses_dist::9       100647      1.56%     15.54% # Number of misses for this cache set. (Count)
system.cpu0.dcache.tags.set_misses_dist::10       100999      1.56%     17.10% # Number of misses for this cache set. (Count)
system.cpu0.dcache.tags.set_misses_dist::11       100085      1.55%     18.65% # Number of misses for this cache set. (Count)
system.cpu0.dcache.tags.set_misses_dist::12       100672      1.56%     20.21% # Number of misses for this cache set. (Count)
system.cpu0.dcache.tags.set_misses_dist::13       100424      1.56%     21.77% # Number of misses for this cache set. (Count)
system.cpu0.dcache.tags.set_misses_dist::14       101157      1.57%     23.33% # Number of misses for this cache set. (Count)
system.cpu0.dcache.tags.set_misses_dist::15       101444      1.57%     24.91% # Number of misses for this cache set. (Count)
system.cpu0.dcache.tags.set_misses_dist::16       101019      1.56%     26.47% # Number of misses for this cache set. (Count)
system.cpu0.dcache.tags.set_misses_dist::17       100298      1.55%     28.02% # Number of misses for this cache set. (Count)
system.cpu0.dcache.tags.set_misses_dist::18       100596      1.56%     29.58% # Number of misses for this cache set. (Count)
system.cpu0.dcache.tags.set_misses_dist::19       100375      1.55%     31.14% # Number of misses for this cache set. (Count)
system.cpu0.dcache.tags.set_misses_dist::20       100966      1.56%     32.70% # Number of misses for this cache set. (Count)
system.cpu0.dcache.tags.set_misses_dist::21       100423      1.56%     34.25% # Number of misses for this cache set. (Count)
system.cpu0.dcache.tags.set_misses_dist::22       100878      1.56%     35.82% # Number of misses for this cache set. (Count)
system.cpu0.dcache.tags.set_misses_dist::23       100624      1.56%     37.38% # Number of misses for this cache set. (Count)
system.cpu0.dcache.tags.set_misses_dist::24       100920      1.56%     38.94% # Number of misses for this cache set. (Count)
system.cpu0.dcache.tags.set_misses_dist::25       100218      1.55%     40.49% # Number of misses for this cache set. (Count)
system.cpu0.dcache.tags.set_misses_dist::26       100946      1.56%     42.05% # Number of misses for this cache set. (Count)
system.cpu0.dcache.tags.set_misses_dist::27       100555      1.56%     43.61% # Number of misses for this cache set. (Count)
system.cpu0.dcache.tags.set_misses_dist::28       101443      1.57%     45.18% # Number of misses for this cache set. (Count)
system.cpu0.dcache.tags.set_misses_dist::29       100634      1.56%     46.74% # Number of misses for this cache set. (Count)
system.cpu0.dcache.tags.set_misses_dist::30       100396      1.55%     48.30% # Number of misses for this cache set. (Count)
system.cpu0.dcache.tags.set_misses_dist::31       101026      1.56%     49.86% # Number of misses for this cache set. (Count)
system.cpu0.dcache.tags.set_misses_dist::32       101206      1.57%     51.43% # Number of misses for this cache set. (Count)
system.cpu0.dcache.tags.set_misses_dist::33       100222      1.55%     52.98% # Number of misses for this cache set. (Count)
system.cpu0.dcache.tags.set_misses_dist::34       100421      1.56%     54.54% # Number of misses for this cache set. (Count)
system.cpu0.dcache.tags.set_misses_dist::35        99648      1.54%     56.08% # Number of misses for this cache set. (Count)
system.cpu0.dcache.tags.set_misses_dist::36       100716      1.56%     57.64% # Number of misses for this cache set. (Count)
system.cpu0.dcache.tags.set_misses_dist::37       100091      1.55%     59.19% # Number of misses for this cache set. (Count)
system.cpu0.dcache.tags.set_misses_dist::38       100786      1.56%     60.75% # Number of misses for this cache set. (Count)
system.cpu0.dcache.tags.set_misses_dist::39       100481      1.56%     62.31% # Number of misses for this cache set. (Count)
system.cpu0.dcache.tags.set_misses_dist::40       100280      1.55%     63.86% # Number of misses for this cache set. (Count)
[...]
system.monitor.ittReqReq::55001-60000           31340      1.71%     80.50% # Request-to-request inter transaction time (Tick)
system.monitor.ittReqReq::60001-65000           32150      1.76%     82.25% # Request-to-request inter transaction time (Tick)
system.monitor.ittReqReq::65001-70000           47633      2.60%     84.86% # Request-to-request inter transaction time (Tick)
system.monitor.ittReqReq::70001-75000           75724      4.14%     88.99% # Request-to-request inter transaction time (Tick)
system.monitor.ittReqReq::75001-80000           15743      0.86%     89.85% # Request-to-request inter transaction time (Tick)
system.monitor.ittReqReq::80001-85000           22737      1.24%     91.10% # Request-to-request inter transaction time (Tick)
system.monitor.ittReqReq::85001-90000           10891      0.60%     91.69% # Request-to-request inter transaction time (Tick)
system.monitor.ittReqReq::90001-95000           11368      0.62%     92.31% # Request-to-request inter transaction time (Tick)
system.monitor.ittReqReq::95001-100000          14416      0.79%     93.10% # Request-to-request inter transaction time (Tick)
system.monitor.ittReqReq::overflows            126246      6.90%    100.00% # Request-to-request inter transaction time (Tick)
system.monitor.ittReqReq::min_value               333                       # Request-to-request inter transaction time (Tick)
system.monitor.ittReqReq::max_value           3686976                       # Request-to-request inter transaction time (Tick)
system.monitor.ittReqReq::total               1830003                       # Request-to-request inter transaction time (Tick)
system.monitor.outstandingReadsHist::samples           67                       # Outstanding read transactions (Count)
system.monitor.outstandingReadsHist::mean     1.626866                       # Outstanding read transactions (Count)
system.monitor.outstandingReadsHist::gmean            0                       # Outstanding read transactions (Count)
system.monitor.outstandingReadsHist::stdev     1.346554                       # Outstanding read transactions (Count)
system.monitor.outstandingReadsHist::0             20     29.85%     29.85% # Outstanding read transactions (Count)
system.monitor.outstandingReadsHist::1             11     16.42%     46.27% # Outstanding read transactions (Count)
system.monitor.outstandingReadsHist::2             16     23.88%     70.15% # Outstanding read transactions (Count)
system.monitor.outstandingReadsHist::3             14     20.90%     91.04% # Outstanding read transactions (Count)
system.monitor.outstandingReadsHist::4              6      8.96%    100.00% # Outstanding read transactions (Count)
system.monitor.outstandingReadsHist::5              0      0.00%    100.00% # Outstanding read transactions (Count)
system.monitor.outstandingReadsHist::6              0      0.00%    100.00% # Outstanding read transactions (Count)
system.monitor.outstandingReadsHist::7              0      0.00%    100.00% # Outstanding read transactions (Count)
system.monitor.outstandingReadsHist::8              0      0.00%    100.00% # Outstanding read transactions (Count)
system.monitor.outstandingReadsHist::9              0      0.00%    100.00% # Outstanding read transactions (Count)
system.monitor.outstandingReadsHist::10             0      0.00%    100.00% # Outstanding read transactions (Count)
system.monitor.outstandingReadsHist::11             0      0.00%    100.00% # Outstanding read transactions (Count)
system.monitor.outstandingReadsHist::12             0      0.00%    100.00% # Outstanding read transactions (Count)
system.monitor.outstandingReadsHist::13             0      0.00%    100.00% # Outstanding read transactions (Count)
system.monitor.outstandingReadsHist::14             0      0.00%    100.00% # Outstanding read transactions (Count)
system.monitor.outstandingReadsHist::15             0      0.00%    100.00% # Outstanding read transactions (Count)
system.monitor.outstandingReadsHist::16             0      0.00%    100.00% # Outstanding read transactions (Count)
system.monitor.outstandingReadsHist::17             0      0.00%    100.00% # Outstanding read transactions (Count)
system.monitor.outstandingReadsHist::18             0      0.00%    100.00% # Outstanding read transactions (Count)
system.monitor.outstandingReadsHist::19             0      0.00%    100.00% # Outstanding read transactions (Count)
system.monitor.outstandingReadsHist::total           67                       # Outstanding read transactions (Count)
system.monitor.outstandingWritesHist::samples           67                       # Outstanding write transactions (Count)
system.monitor.outstandingWritesHist::mean            0                       # Outstanding write transactions (Count)
system.monitor.outstandingWritesHist::gmean            0                       # Outstanding write transactions (Count)
system.monitor.outstandingWritesHist::stdev            0                       # Outstanding write transactions (Count)
system.monitor.outstandingWritesHist::0            67    100.00%    100.00% # Outstanding write transactions (Count)
system.monitor.outstandingWritesHist::1             0      0.00%    100.00% # Outstanding write transactions (Count)
system.monitor.outstandingWritesHist::2             0      0.00%    100.00% # Outstanding write transactions (Count)
system.monitor.outstandingWritesHist::3             0      0.00%    100.00% # Outstanding write transactions (Count)
system.monitor.outstandingWritesHist::4             0      0.00%    100.00% # Outstanding write transactions (Count)
system.monitor.outstandingWritesHist::5             0      0.00%    100.00% # Outstanding write transactions (Count)
system.monitor.outstandingWritesHist::6             0      0.00%    100.00% # Outstanding write transactions (Count)
system.monitor.outstandingWritesHist::7             0      0.00%    100.00% # Outstanding write transactions (Count)
system.monitor.outstandingWritesHist::8             0      0.00%    100.00% # Outstanding write transactions (Count)
system.monitor.outstandingWritesHist::9             0      0.00%    100.00% # Outstanding write transactions (Count)
system.monitor.outstandingWritesHist::10            0      0.00%    100.00% # Outstanding write transactions (Count)
system.monitor.outstandingWritesHist::11            0      0.00%    100.00% # Outstanding write transactions (Count)
system.monitor.outstandingWritesHist::12            0      0.00%    100.00% # Outstanding write transactions (Count)
system.monitor.outstandingWritesHist::13            0      0.00%    100.00% # Outstanding write transactions (Count)
system.monitor.outstandingWritesHist::14            0      0.00%    100.00% # Outstanding write transactions (Count)
system.monitor.outstandingWritesHist::15            0      0.00%    100.00% # Outstanding write transactions (Count)
system.monitor.outstandingWritesHist::16            0      0.00%    100.00% # Outstanding write transactions (Count)
system.monitor.outstandingWritesHist::17            0      0.00%    100.00% # Outstanding write transactions (Count)
system.monitor.outstandingWritesHist::18            0      0.00%    100.00% # Outstanding write transactions (Count)
system.monitor.outstandingWritesHist::19            0      0.00%    100.00% # Outstanding write transactions (Count)
system.monitor.outstandingWritesHist::total           67                       # Outstanding write transactions (Count)
system.monitor.readTransHist::samples              67                       # Histogram of read transactions per sample period (Count)
system.monitor.readTransHist::mean       19190.731343                       # Histogram of read transactions per sample period (Count)
system.monitor.readTransHist::gmean      14346.942201                       # Histogram of read transactions per sample period (Count)
system.monitor.readTransHist::stdev      12276.297256                       # Histogram of read transactions per sample period (Count)
system.monitor.readTransHist::0-4095                0      0.00%      0.00% # Histogram of read transactions per sample period (Count)
system.monitor.readTransHist::4096-8191            26     38.81%     38.81% # Histogram of read transactions per sample period (Count)
system.monitor.readTransHist::8192-12287            0      0.00%     38.81% # Histogram of read transactions per sample period (Count)
system.monitor.readTransHist::12288-16383            0      0.00%     38.81% # Histogram of read transactions per sample period (Count)
system.monitor.readTransHist::16384-20479            0      0.00%     38.81% # Histogram of read transactions per sample period (Count)
system.monitor.readTransHist::20480-24575           17     25.37%     64.18% # Histogram of read transactions per sample period (Count)
system.monitor.readTransHist::24576-28671           12     17.91%     82.09% # Histogram of read transactions per sample period (Count)
system.monitor.readTransHist::28672-32767            2      2.99%     85.07% # Histogram of read transactions per sample period (Count)
system.monitor.readTransHist::32768-36863            6      8.96%     94.03% # Histogram of read transactions per sample period (Count)
system.monitor.readTransHist::36864-40959            1      1.49%     95.52% # Histogram of read transactions per sample period (Count)
system.monitor.readTransHist::40960-45055            2      2.99%     98.51% # Histogram of read transactions per sample period (Count)
system.monitor.readTransHist::45056-49151            1      1.49%    100.00% # Histogram of read transactions per sample period (Count)
system.monitor.readTransHist::49152-53247            0      0.00%    100.00% # Histogram of read transactions per sample period (Count)
system.monitor.readTransHist::53248-57343            0      0.00%    100.00% # Histogram of read transactions per sample period (Count)
system.monitor.readTransHist::57344-61439            0      0.00%    100.00% # Histogram of read transactions per sample period (Count)
system.monitor.readTransHist::61440-65535            0      0.00%    100.00% # Histogram of read transactions per sample period (Count)
system.monitor.readTransHist::65536-69631            0      0.00%    100.00% # Histogram of read transactions per sample period (Count)
system.monitor.readTransHist::69632-73727            0      0.00%    100.00% # Histogram of read transactions per sample period (Count)
system.monitor.readTransHist::73728-77823            0      0.00%    100.00% # Histogram of read transactions per sample period (Count)
system.monitor.readTransHist::77824-81919            0      0.00%    100.00% # Histogram of read transactions per sample period (Count)
system.monitor.readTransHist::total                67                       # Histogram of read transactions per sample period (Count)
system.monitor.writeTransHist::samples             67                       # Histogram of write transactions per sample period (Count)
system.monitor.writeTransHist::mean       8085.522388                       # Histogram of write transactions per sample period (Count)
system.monitor.writeTransHist::gmean                0                       # Histogram of write transactions per sample period (Count)
system.monitor.writeTransHist::stdev      6082.222265                       # Histogram of write transactions per sample period (Count)
system.monitor.writeTransHist::0-2047              10     14.93%     14.93% # Histogram of write transactions per sample period (Count)
system.monitor.writeTransHist::2048-4095            2      2.99%     17.91% # Histogram of write transactions per sample period (Count)
system.monitor.writeTransHist::4096-6143           21     31.34%     49.25% # Histogram of write transactions per sample period (Count)
system.monitor.writeTransHist::6144-8191            4      5.97%     55.22% # Histogram of write transactions per sample period (Count)
system.monitor.writeTransHist::8192-10239            5      7.46%     62.69% # Histogram of write transactions per sample period (Count)
system.monitor.writeTransHist::10240-12287           14     20.90%     83.58% # Histogram of write transactions per sample period (Count)
system.monitor.writeTransHist::12288-14335            7     10.45%     94.03% # Histogram of write transactions per sample period (Count)
system.monitor.writeTransHist::14336-16383            0      0.00%     94.03% # Histogram of write transactions per sample period (Count)
system.monitor.writeTransHist::16384-18431            2      2.99%     97.01% # Histogram of write transactions per sample period (Count)
system.monitor.writeTransHist::18432-20479            0      0.00%     97.01% # Histogram of write transactions per sample period (Count)
system.monitor.writeTransHist::20480-22527            0      0.00%     97.01% # Histogram of write transactions per sample period (Count)
system.monitor.writeTransHist::22528-24575            0      0.00%     97.01% # Histogram of write transactions per sample period (Count)
system.monitor.writeTransHist::24576-26623            0      0.00%     97.01% # Histogram of write transactions per sample period (Count)
system.monitor.writeTransHist::26624-28671            1      1.49%     98.51% # Histogram of write transactions per sample period (Count)
system.monitor.writeTransHist::28672-30719            0      0.00%     98.51% # Histogram of write transactions per sample period (Count)
system.monitor.writeTransHist::30720-32767            1      1.49%    100.00% # Histogram of write transactions per sample period (Count)
system.monitor.writeTransHist::32768-34815            0      0.00%    100.00% # Histogram of write transactions per sample period (Count)
system.monitor.writeTransHist::34816-36863            0      0.00%    100.00% # Histogram of write transactions per sample period (Count)
system.monitor.writeTransHist::36864-38911            0      0.00%    100.00% # Histogram of write transactions per sample period (Count)
system.monitor.writeTransHist::38912-40959            0      0.00%    100.00% # Histogram of write transactions per sample period (Count)
system.monitor.writeTransHist::total               67                       # Histogram of write transactions per sample period (Count)
system.tollcbus.transDist::ReadResp            785838                       # Transaction distribution (Count)
system.tollcbus.transDist::WritebackDirty      1002990                       # Transaction distribution (Count)
system.tollcbus.transDist::CleanEvict         1561660                       # Transaction distribution (Count)
system.tollcbus.transDist::UpgradeReq            4404                       # Transaction distribution (Count)
system.tollcbus.transDist::UpgradeResp           4404                       # Transaction distribution (Count)
system.tollcbus.transDist::ReadExReq           529904                       # Transaction distribution (Count)
system.tollcbus.transDist::ReadExResp          529904                       # Transaction distribution (Count)
system.tollcbus.transDist::ReadSharedReq       785838                       # Transaction distribution (Count)
system.tollcbus.pktCount_system.cpu0.l2cache.mem_side_port::system.monitor-cpu_side_port      1929632                       # Packet count per connected requestor and responder (Count)
system.tollcbus.pktCount_system.cpu1.l2cache.mem_side_port::system.monitor-cpu_side_port      1920371                       # Packet count per connected requestor and responder (Count)
system.tollcbus.pktCount::total               3850003                       # Packet count per connected requestor and responder (Count)
system.tollcbus.pktSize_system.cpu0.l2cache.mem_side_port::system.monitor-cpu_side_port     58697984                       # Cumulative packet size per connected requestor and responder (Byte)
system.tollcbus.pktSize_system.cpu1.l2cache.mem_side_port::system.monitor-cpu_side_port     58418560                       # Cumulative packet size per connected requestor and responder (Byte)
system.tollcbus.pktSize::total              117116544                       # Cumulative packet size per connected requestor and responder (Byte)
system.tollcbus.snoops                        1354939                       # Total snoops (Count)
system.tollcbus.snoopTraffic                 31282304                       # Total snoop traffic (Byte)
system.tollcbus.snoopFanout::samples          2642653                       # Request fanout histogram (Count)
system.tollcbus.snoopFanout::mean            0.150906                       # Request fanout histogram (Count)
system.tollcbus.snoopFanout::stdev           0.363740                       # Request fanout histogram (Count)
system.tollcbus.snoopFanout::underflows             0      0.00%      0.00% # Request fanout histogram (Count)
system.tollcbus.snoopFanout::0                2249374     85.12%     85.12% # Request fanout histogram (Count)
system.tollcbus.snoopFanout::1                 387765     14.67%     99.79% # Request fanout histogram (Count)
system.tollcbus.snoopFanout::2                   5514      0.21%    100.00% # Request fanout histogram (Count)
system.tollcbus.snoopFanout::overflows              0      0.00%    100.00% # Request fanout histogram (Count)
system.tollcbus.snoopFanout::min_value              0                       # Request fanout histogram (Count)
system.tollcbus.snoopFanout::max_value              2                       # Request fanout histogram (Count)
system.tollcbus.snoopFanout::total            2642653                       # Request fanout histogram (Count)
system.tollcbus.power_state.pwrStateResidencyTicks::UNDEFINED  67099398102                       # Cumulative time (in ticks) in various power states (Tick)
system.tollcbus.reqLayer0.occupancy        1214678424                       # Layer occupancy (ticks) (Tick)
system.tollcbus.reqLayer0.utilization             0.0                       # Layer utilization (Ratio)
system.tollcbus.respLayer0.occupancy        658809717                       # Layer occupancy (ticks) (Tick)
system.tollcbus.respLayer0.utilization            0.0                       # Layer utilization (Ratio)
system.tollcbus.respLayer1.occupancy        657188321                       # Layer occupancy (ticks) (Tick)
system.tollcbus.respLayer1.utilization            0.0                       # Layer utilization (Ratio)
system.tollcbus.snoop_filter.totRequests      2562289                       # Total number of requests made to the snoop filter. (Count)
system.tollcbus.snoop_filter.hitSingleRequests      1246394                       # Number of requests hitting in the snoop filter with a single holder of the requested data. (Count)
system.tollcbus.snoop_filter.hitMultiRequests        32190                       # Number of requests hitting in the snoop filter with multiple (>1) holders of the requested data. (Count)
system.tollcbus.snoop_filter.totSnoops         356848                       # Total number of snoops made to the snoop filter. (Count)
system.tollcbus.snoop_filter.hitSingleSnoops       351334                       # Number of snoops hitting in the snoop filter with a single holder of the requested data. (Count)
system.tollcbus.snoop_filter.hitMultiSnoops         5514                       # Number of snoops hitting in the snoop filter with multiple (>1) holders of the requested data. (Count)
system.voltage_domain.voltage                       1                       # Voltage in Volts (Volt)
system.workload.inst.arm                            0                       # number of arm instructions executed (Count)
system.workload.inst.quiesce                        0                       # number of quiesce instructions executed (Count)

---------- End Simulation Statistics   ----------
