
---------- Begin Simulation Statistics ----------
simSeconds                                   0.067103                       # Number of seconds simulated (Second)
simTicks                                  67103095068                       # Number of ticks simulated (Tick)
finalTick                                 67103095068                       # Number of ticks from beginning of simulation (restored from checkpoints and never reset) (Tick)
simFreq                                  1000000000000                       # The number of ticks per simulated second ((Tick/Second))
hostSeconds                                   1468.42                       # Real time elapsed on the host (Second)
hostTickRate                                 45697586                       # The number of ticks simulated per host second (ticks/s) ((Tick/Second))
hostMemory                                     747020                       # Number of bytes of host memory used (Byte)
simInsts                                    254019556                       # Number of instructions simulated (Count)
simOps                                      437757516                       # Number of ops (including micro ops) simulated (Count)
hostInstRate                                   172989                       # Simulator instruction rate (inst/s) ((Count/Second))
hostOpRate                                     298115                       # Simulator op (including micro ops) rate (op/s) ((Count/Second))
system.clk_domain.clock                          1000                       # Clock period in ticks (Tick)
system.cpu0.numCycles                       201274335                       # Number of cpu cycles simulated (Cycle)
system.cpu0.numWorkItemsStarted                     0                       # Number of work items this cpu started (Count)
system.cpu0.numWorkItemsCompleted                   0                       # Number of work items this cpu completed (Count)
system.cpu0.instsAdded                      219273499                       # Number of instructions added to the IQ (excludes non-spec) (Count)
system.cpu0.nonSpecInstsAdded                    1723                       # Number of non-speculative instructions added to the IQ (Count)
system.cpu0.instsIssued                     219188377                       # Number of instructions issued (Count)
system.cpu0.squashedInstsIssued                   244                       # Number of squashed instructions issued (Count)
system.cpu0.squashedInstsExamined              388549                       # Number of squashed instructions iterated over during squash; mainly for profiling (Count)
system.cpu0.squashedOperandsExamined           311518                       # Number of squashed operands that are examined and possibly removed from graph (Count)
system.cpu0.squashedNonSpecRemoved                907                       # Number of squashed non-spec instructions that were removed (Count)
system.cpu0.numIssuedDist::samples          201122509                       # Number of insts issued each cycle (Count)
system.cpu0.numIssuedDist::mean              1.089825                       # Number of insts issued each cycle (Count)
system.cpu0.numIssuedDist::stdev             1.440395                       # Number of insts issued each cycle (Count)
system.cpu0.numIssuedDist::underflows               0      0.00%      0.00% # Number of insts issued each cycle (Count)
system.cpu0.numIssuedDist::0                100551107     49.99%     49.99% # Number of insts issued each cycle (Count)
system.cpu0.numIssuedDist::1                 37128973     18.46%     68.46% # Number of insts issued each cycle (Count)
system.cpu0.numIssuedDist::2                 34739286     17.27%     85.73% # Number of insts issued each cycle (Count)
system.cpu0.numIssuedDist::3                 14315364      7.12%     92.85% # Number of insts issued each cycle (Count)
system.cpu0.numIssuedDist::4                  6847288      3.40%     96.25% # Number of insts issued each cycle (Count)
system.cpu0.numIssuedDist::5                  4259364      2.12%     98.37% # Number of insts issued each cycle (Count)
system.cpu0.numIssuedDist::6                  2350109      1.17%     99.54% # Number of insts issued each cycle (Count)
system.cpu0.numIssuedDist::7                   600030      0.30%     99.84% # Number of insts issued each cycle (Count)
system.cpu0.numIssuedDist::8                   330988      0.16%    100.00% # Number of insts issued each cycle (Count)
system.cpu0.numIssuedDist::overflows                0      0.00%    100.00% # Number of insts issued each cycle (Count)
system.cpu0.numIssuedDist::min_value                0                       # Number of insts issued each cycle (Count)
system.cpu0.numIssuedDist::max_value                8                       # Number of insts issued each cycle (Count)
system.cpu0.numIssuedDist::total            201122509                       # Number of insts issued each cycle (Count)
system.cpu0.statFuBusy::No_OpClass                  0      0.00%      0.00% # attempts to use FU when none available (Count)
system.cpu0.statFuBusy::IntAlu                 326031     99.66%     99.66% # attempts to use FU when none available (Count)
system.cpu0.statFuBusy::IntMult                     0      0.00%     99.66% # attempts to use FU when none available (Count)
system.cpu0.statFuBusy::IntDiv                      0      0.00%     99.66% # attempts to use FU when none available (Count)
system.cpu0.statFuBusy::FloatAdd                    0      0.00%     99.66% # attempts to use FU when none available (Count)
system.cpu0.statFuBusy::FloatCmp                    0      0.00%     99.66% # attempts to use FU when none available (Count)
system.cpu0.statFuBusy::FloatCvt                    0      0.00%     99.66% # attempts to use FU when none available (Count)
system.cpu0.statFuBusy::FloatMult                   0      0.00%     99.66% # attempts to use FU when none available (Count)
system.cpu0.statFuBusy::FloatMultAcc                0      0.00%     99.66% # attempts to use FU when none available (Count)
system.cpu0.statFuBusy::FloatDiv                    0      0.00%     99.66% # attempts to use FU when none available (Count)
system.cpu0.statFuBusy::FloatMisc                   0      0.00%     99.66% # attempts to use FU when none available (Count)
system.cpu0.statFuBusy::FloatSqrt                   0      0.00%     99.66% # attempts to use FU when none available (Count)
system.cpu0.statFuBusy::SimdAdd                     0      0.00%     99.66% # attempts to use FU when none available (Count)
system.cpu0.statFuBusy::SimdAddAcc                  0      0.00%     99.66% # attempts to use FU when none available (Count)
system.cpu0.statFuBusy::SimdAlu                    17      0.01%     99.66% # attempts to use FU when none available (Count)
system.cpu0.statFuBusy::SimdCmp                     0      0.00%     99.66% # attempts to use FU when none available (Count)
system.cpu0.statFuBusy::SimdCvt                    21      0.01%     99.67% # attempts to use FU when none available (Count)
system.cpu0.statFuBusy::SimdMisc                    4      0.00%     99.67% # attempts to use FU when none available (Count)
system.cpu0.statFuBusy::SimdMult                    0      0.00%     99.67% # attempts to use FU when none available (Count)
system.cpu0.statFuBusy::SimdMultAcc                 0      0.00%     99.67% # attempts to use FU when none available (Count)
system.cpu0.statFuBusy::SimdShift                   0      0.00%     99.67% # attempts to use FU when none available (Count)
system.cpu0.statFuBusy::SimdShiftAcc                0      0.00%     99.67% # attempts to use FU when none available (Count)
system.cpu0.statFuBusy::SimdDiv                     0      0.00%     99.67% # attempts to use FU when none available (Count)
system.cpu0.statFuBusy::SimdSqrt                    0      0.00%     99.67% # attempts to use FU when none available (Count)
system.cpu0.statFuBusy::SimdFloatAdd                0      0.00%     99.67% # attempts to use FU when none available (Count)
system.cpu0.statFuBusy::SimdFloatAlu                0      0.00%     99.67% # attempts to use FU when none available (Count)
system.cpu0.statFuBusy::SimdFloatCmp                0      0.00%     99.67% # attempts to use FU when none available (Count)
system.cpu0.statFuBusy::SimdFloatCvt                0      0.00%     99.67% # attempts to use FU when none available (Count)
system.cpu0.statFuBusy::SimdFloatDiv                0      0.00%     99.67% # attempts to use FU when none available (Count)
system.cpu0.statFuBusy::SimdFloatMisc               0      0.00%     99.67% # attempts to use FU when none available (Count)
system.cpu0.statFuBusy::SimdFloatMult               0      0.00%     99.67% # attempts to use FU when none available (Count)
system.cpu0.statFuBusy::SimdFloatMultAcc            0      0.00%     99.67% # attempts to use FU when none available (Count)
system.cpu0.statFuBusy::SimdFloatSqrt               0      0.00%     99.67% # attempts to use FU when none available (Count)
system.cpu0.statFuBusy::SimdReduceAdd               0      0.00%     99.67% # attempts to use FU when none available (Count)
system.cpu0.statFuBusy::SimdReduceAlu               0      0.00%     99.67% # attempts to use FU when none available (Count)
system.cpu0.statFuBusy::SimdReduceCmp               0      0.00%     99.67% # attempts to use FU when none available (Count)
system.cpu0.statFuBusy::SimdFloatReduceAdd            0      0.00%     99.67% # attempts to use FU when none available (Count)
system.cpu0.statFuBusy::SimdFloatReduceCmp            0      0.00%     99.67% # attempts to use FU when none available (Count)
system.cpu0.statFuBusy::SimdAes                     0      0.00%     99.67% # attempts to use FU when none available (Count)
system.cpu0.statFuBusy::SimdAesMix                  0      0.00%     99.67% # attempts to use FU when none available (Count)
system.cpu0.statFuBusy::SimdSha1Hash                0      0.00%     99.67% # attempts to use FU when none available (Count)
system.cpu0.statFuBusy::SimdSha1Hash2               0      0.00%     99.67% # attempts to use FU when none available (Count)
system.cpu0.statFuBusy::SimdSha256Hash              0      0.00%     99.67% # attempts to use FU when none available (Count)
system.cpu0.statFuBusy::SimdSha256Hash2             0      0.00%     99.67% # attempts to use FU when none available (Count)
system.cpu0.statFuBusy::SimdShaSigma2               0      0.00%     99.67% # attempts to use FU when none available (Count)
system.cpu0.statFuBusy::SimdShaSigma3               0      0.00%     99.67% # attempts to use FU when none available (Count)
system.cpu0.statFuBusy::SimdPredAlu                 0      0.00%     99.67% # attempts to use FU when none available (Count)
system.cpu0.statFuBusy::MemRead                   614      0.19%     99.86% # attempts to use FU when none available (Count)
system.cpu0.statFuBusy::MemWrite                  295      0.09%     99.95% # attempts to use FU when none available (Count)
system.cpu0.statFuBusy::FloatMemRead               62      0.02%     99.97% # attempts to use FU when none available (Count)
system.cpu0.statFuBusy::FloatMemWrite             101      0.03%    100.00% # attempts to use FU when none available (Count)
system.cpu0.statFuBusy::IprAccess                   0      0.00%    100.00% # attempts to use FU when none available (Count)
system.cpu0.statFuBusy::InstPrefetch                0      0.00%    100.00% # attempts to use FU when none available (Count)
system.cpu0.statIssuedInstType_0::No_OpClass      2101408      0.96%      0.96% # Number of instructions issued per FU type, per thread (Count)
system.cpu0.statIssuedInstType_0::IntAlu     88991134     40.60%     41.56% # Number of instructions issued per FU type, per thread (Count)
system.cpu0.statIssuedInstType_0::IntMult          108      0.00%     41.56% # Number of instructions issued per FU type, per thread (Count)
system.cpu0.statIssuedInstType_0::IntDiv          268      0.00%     41.56% # Number of instructions issued per FU type, per thread (Count)
system.cpu0.statIssuedInstType_0::FloatAdd      6297835      2.87%     44.43% # Number of instructions issued per FU type, per thread (Count)
system.cpu0.statIssuedInstType_0::FloatCmp            0      0.00%     44.43% # Number of instructions issued per FU type, per thread (Count)
system.cpu0.statIssuedInstType_0::FloatCvt            0      0.00%     44.43% # Number of instructions issued per FU type, per thread (Count)
system.cpu0.statIssuedInstType_0::FloatMult            0      0.00%     44.43% # Number of instructions issued per FU type, per thread (Count)
system.cpu0.statIssuedInstType_0::FloatMultAcc            0      0.00%     44.43% # Number of instructions issued per FU type, per thread (Count)
system.cpu0.statIssuedInstType_0::FloatDiv            0      0.00%     44.43% # Number of instructions issued per FU type, per thread (Count)
system.cpu0.statIssuedInstType_0::FloatMisc            0      0.00%     44.43% # Number of instructions issued per FU type, per thread (Count)
system.cpu0.statIssuedInstType_0::FloatSqrt            0      0.00%     44.43% # Number of instructions issued per FU type, per thread (Count)
system.cpu0.statIssuedInstType_0::SimdAdd            0      0.00%     44.43% # Number of instructions issued per FU type, per thread (Count)
system.cpu0.statIssuedInstType_0::SimdAddAcc            0      0.00%     44.43% # Number of instructions issued per FU type, per thread (Count)
system.cpu0.statIssuedInstType_0::SimdAlu     17837520      8.14%     52.57% # Number of instructions issued per FU type, per thread (Count)
system.cpu0.statIssuedInstType_0::SimdCmp            0      0.00%     52.57% # Number of instructions issued per FU type, per thread (Count)
system.cpu0.statIssuedInstType_0::SimdCvt          340      0.00%     52.57% # Number of instructions issued per FU type, per thread (Count)
system.cpu0.statIssuedInstType_0::SimdMisc     17306282      7.90%     60.47% # Number of instructions issued per FU type, per thread (Count)
system.cpu0.statIssuedInstType_0::SimdMult            0      0.00%     60.47% # Number of instructions issued per FU type, per thread (Count)
system.cpu0.statIssuedInstType_0::SimdMultAcc            0      0.00%     60.47% # Number of instructions issued per FU type, per thread (Count)
system.cpu0.statIssuedInstType_0::SimdShift            0      0.00%     60.47% # Number of instructions issued per FU type, per thread (Count)
system.cpu0.statIssuedInstType_0::SimdShiftAcc            0      0.00%     60.47% # Number of instructions issued per FU type, per thread (Count)
system.cpu0.statIssuedInstType_0::SimdDiv            0      0.00%     60.47% # Number of instructions issued per FU type, per thread (Count)
system.cpu0.statIssuedInstType_0::SimdSqrt            0      0.00%     60.47% # Number of instructions issued per FU type, per thread (Count)
system.cpu0.statIssuedInstType_0::SimdFloatAdd     14158865      6.46%     66.93% # Number of instructions issued per FU type, per thread (Count)
system.cpu0.statIssuedInstType_0::SimdFloatAlu            0      0.00%     66.93% # Number of instructions issued per FU type, per thread (Count)
system.cpu0.statIssuedInstType_0::SimdFloatCmp            0      0.00%     66.93% # Number of instructions issued per FU type, per thread (Count)
system.cpu0.statIssuedInstType_0::SimdFloatCvt     17830938      8.13%     75.06% # Number of instructions issued per FU type, per thread (Count)
system.cpu0.statIssuedInstType_0::SimdFloatDiv            0      0.00%     75.06% # Number of instructions issued per FU type, per thread (Count)
system.cpu0.statIssuedInstType_0::SimdFloatMisc            0      0.00%     75.06% # Number of instructions issued per FU type, per thread (Count)
system.cpu0.statIssuedInstType_0::SimdFloatMult     28319761     12.92%     87.98% # Number of instructions issued per FU type, per thread (Count)
system.cpu0.statIssuedInstType_0::SimdFloatMultAcc            0      0.00%     87.98% # Number of instructions issued per FU type, per thread (Count)
system.cpu0.statIssuedInstType_0::SimdFloatSqrt            0      0.00%     87.98% # Number of instructions issued per FU type, per thread (Count)
system.cpu0.statIssuedInstType_0::SimdReduceAdd            0      0.00%     87.98% # Number of instructions issued per FU type, per thread (Count)
system.cpu0.statIssuedInstType_0::SimdReduceAlu            0      0.00%     87.98% # Number of instructions issued per FU type, per thread (Count)
system.cpu0.statIssuedInstType_0::SimdReduceCmp            0      0.00%     87.98% # Number of instructions issued per FU type, per thread (Count)
system.cpu0.statIssuedInstType_0::SimdFloatReduceAdd            0      0.00%     87.98% # Number of instructions issued per FU type, per thread (Count)
system.cpu0.statIssuedInstType_0::SimdFloatReduceCmp            0      0.00%     87.98% # Number of instructions issued per FU type, per thread (Count)
system.cpu0.statIssuedInstType_0::SimdAes            0      0.00%     87.98% # Number of instructions issued per FU type, per thread (Count)
system.cpu0.statIssuedInstType_0::SimdAesMix            0      0.00%     87.98% # Number of instructions issued per FU type, per thread (Count)
system.cpu0.statIssuedInstType_0::SimdSha1Hash            0      0.00%     87.98% # Number of instructions issued per FU type, per thread (Count)
system.cpu0.statIssuedInstType_0::SimdSha1Hash2            0      0.00%     87.98% # Number of instructions issued per FU type, per thread (Count)
system.cpu0.statIssuedInstType_0::SimdSha256Hash            0      0.00%     87.98% # Number of instructions issued per FU type, per thread (Count)
system.cpu0.statIssuedInstType_0::SimdSha256Hash2            0      0.00%     87.98% # Number of instructions issued per FU type, per thread (Count)
system.cpu0.statIssuedInstType_0::SimdShaSigma2            0      0.00%     87.98% # Number of instructions issued per FU type, per thread (Count)
system.cpu0.statIssuedInstType_0::SimdShaSigma3            0      0.00%     87.98% # Number of instructions issued per FU type, per thread (Count)
system.cpu0.statIssuedInstType_0::SimdPredAlu            0      0.00%     87.98% # Number of instructions issued per FU type, per thread (Count)
system.cpu0.statIssuedInstType_0::MemRead     10032852      4.58%     92.56% # Number of instructions issued per FU type, per thread (Count)
system.cpu0.statIssuedInstType_0::MemWrite      7389254      3.37%     95.93% # Number of instructions issued per FU type, per thread (Count)
system.cpu0.statIssuedInstType_0::FloatMemRead      8920751      4.07%    100.00% # Number of instructions issued per FU type, per thread (Count)
system.cpu0.statIssuedInstType_0::FloatMemWrite         1061      0.00%    100.00% # Number of instructions issued per FU type, per thread (Count)
system.cpu0.statIssuedInstType_0::IprAccess            0      0.00%    100.00% # Number of instructions issued per FU type, per thread (Count)
system.cpu0.statIssuedInstType_0::InstPrefetch            0      0.00%    100.00% # Number of instructions issued per FU type, per thread (Count)
system.cpu0.statIssuedInstType_0::total     219188377                       # Number of instructions issued per FU type, per thread (Count)
system.cpu0.issueRate                        1.089003                       # Inst issue rate ((Count/Cycle))
system.cpu0.fuBusy                             327145                       # FU busy when requested (Count)
system.cpu0.fuBusyRate                       0.001493                       # FU busy rate (busy events/executed inst) ((Count/Count))
system.cpu0.intInstQueueReads               359725969                       # Number of integer instruction queue reads (Count)
system.cpu0.intInstQueueWrites               79434414                       # Number of integer instruction queue writes (Count)
system.cpu0.intInstQueueWakeupAccesses       79126585                       # Number of integer instruction queue wakeup accesses (Count)
system.cpu0.fpInstQueueReads                280100683                       # Number of floating instruction queue reads (Count)
system.cpu0.fpInstQueueWrites               140229488                       # Number of floating instruction queue writes (Count)
system.cpu0.fpInstQueueWakeupAccesses       140047879                       # Number of floating instruction queue wakeup accesses (Count)
system.cpu0.vecInstQueueReads                       0                       # Number of vector instruction queue reads (Count)
system.cpu0.vecInstQueueWrites                      0                       # Number of vector instruction queue writes (Count)
system.cpu0.vecInstQueueWakeupAccesses              0                       # Number of vector instruction queue wakeup accesses (Count)
system.cpu0.intAluAccesses                   77363695                       # Number of integer alu accesses (Count)
system.cpu0.fpAluAccesses                   140050419                       # Number of floating point alu accesses (Count)
system.cpu0.vecAluAccesses                          0                       # Number of vector alu accesses (Count)
system.cpu0.numInsts                        219184751                       # Number of executed instructions (Count)
system.cpu0.numLoadInsts                     18953142                       # Number of load instructions executed (Count)
system.cpu0.numSquashedInsts                     3626                       # Number of squashed instructions skipped in execute (Count)
system.cpu0.numSwp                                  0                       # Number of swp insts executed (Count)
system.cpu0.numNop                                  0                       # Number of nop insts executed (Count)
system.cpu0.numRefs                          26343120                       # Number of memory reference insts executed (Count)
system.cpu0.numBranches                       7908650                       # Number of branches executed (Count)
system.cpu0.numStoreInsts                     7389978                       # Number of stores executed (Count)
system.cpu0.numRate                          1.088985                       # Inst execution rate ((Count/Cycle))
system.cpu0.timesIdled                            757                       # Number of times that the entire CPU went into an idle state and unscheduled itself (Count)
system.cpu0.idleCycles                         151826                       # Total number of cycles that the CPU has spent unscheduled due to idling (Cycle)
system.cpu0.quiesceCycles                      236462                       # Total number of cycles that CPU has spent quiesced or waiting for an interrupt (Cycle)
system.cpu0.committedInsts                  127014105                       # Number of Instructions Simulated (Count)
system.cpu0.committedOps                    218886650                       # Number of Ops (including micro ops) Simulated (Count)
system.cpu0.cpi                              1.584661                       # CPI: Cycles Per Instruction ((Cycle/Count))
system.cpu0.totalCpi                         1.584661                       # CPI: Total CPI of All Threads ((Cycle/Count))
system.cpu0.ipc                              0.631050                       # IPC: Instructions Per Cycle ((Count/Cycle))
system.cpu0.totalIpc                         0.631050                       # IPC: Total IPC of All Threads ((Count/Cycle))
system.cpu0.intRegfileReads                 123364939                       # Number of integer regfile reads (Count)
system.cpu0.intRegfileWrites                 66941850                       # Number of integer regfile writes (Count)
system.cpu0.fpRegfileReads                  274833123                       # Number of floating regfile reads (Count)
system.cpu0.fpRegfileWrites                 131132252                       # Number of floating regfile writes (Count)
system.cpu0.ccRegfileReads                   24867927                       # number of cc regfile reads (Count)
system.cpu0.ccRegfileWrites                  33780838                       # number of cc regfile writes (Count)
system.cpu0.miscRegfileReads                 48994600                       # number of misc regfile reads (Count)
system.cpu0.MemDepUnit__0.insertedLoads      18960396                       # Number of loads inserted to the mem dependence unit. (Count)
system.cpu0.MemDepUnit__0.insertedStores      7397431                       # Number of stores inserted to the mem dependence unit. (Count)
system.cpu0.MemDepUnit__0.conflictingLoads      4613143                       # Number of conflicting loads. (Count)
system.cpu0.MemDepUnit__0.conflictingStores      4108598                       # Number of conflicting stores. (Count)
system.cpu0.MemDepUnit__1.insertedLoads             0                       # Number of loads inserted to the mem dependence unit. (Count)
system.cpu0.MemDepUnit__1.insertedStores            0                       # Number of stores inserted to the mem dependence unit. (Count)
system.cpu0.MemDepUnit__1.conflictingLoads            0                       # Number of conflicting loads. (Count)
system.cpu0.MemDepUnit__1.conflictingStores            0                       # Number of conflicting stores. (Count)
system.cpu0.MemDepUnit__2.insertedLoads             0                       # Number of loads inserted to the mem dependence unit. (Count)
system.cpu0.MemDepUnit__2.insertedStores            0                       # Number of stores inserted to the mem dependence unit. (Count)
system.cpu0.MemDepUnit__2.conflictingLoads            0                       # Number of conflicting loads. (Count)
system.cpu0.MemDepUnit__2.conflictingStores            0                       # Number of conflicting stores. (Count)
system.cpu0.MemDepUnit__3.insertedLoads             0                       # Number of loads inserted to the mem dependence unit. (Count)
system.cpu0.MemDepUnit__3.insertedStores            0                       # Number of stores inserted to the mem dependence unit. (Count)
system.cpu0.MemDepUnit__3.conflictingLoads            0                       # Number of conflicting loads. (Count)
system.cpu0.MemDepUnit__3.conflictingStores            0                       # Number of conflicting stores. (Count)
system.cpu0.branchPred.lookups                7919798                       # Number of BP lookups (Count)
system.cpu0.branchPred.condPredicted          3715476                       # Number of conditional branches predicted (Count)
system.cpu0.branchPred.condIncorrect             1777                       # Number of conditional branches incorrect (Count)
system.cpu0.branchPred.BTBLookups             5811229                       # Number of BTB lookups (Count)
system.cpu0.branchPred.BTBHits                5809516                       # Number of BTB hits (Count)
system.cpu0.branchPred.BTBHitRatio           0.999705                       # BTB Hit Ratio (Ratio)
system.cpu0.branchPred.RASUsed                2100536                       # Number of times the RAS was used to get a target. (Count)
system.cpu0.branchPred.RASIncorrect                 1                       # Number of incorrect RAS predictions. (Count)
system.cpu0.branchPred.indirectLookups           1065                       # Number of indirect predictor lookups. (Count)
system.cpu0.branchPred.indirectHits               201                       # Number of indirect target hits. (Count)
system.cpu0.branchPred.indirectMisses             864                       # Number of indirect misses. (Count)
system.cpu0.branchPred.indirectMispredicted          179                       # Number of mispredicted indirect branches. (Count)
system.cpu0.commit.commitSquashedInsts         360258                       # The number of squashed insts skipped by commit (Count)
system.cpu0.commit.commitNonSpecStalls            816                       # The number of times commit has been forced to stall to communicate backwards (Count)
system.cpu0.commit.branchMispredicts             1336                       # The number of times a branch was mispredicted (Count)
system.cpu0.commit.numCommittedDist::samples    201075674                       # Number of insts commited each cycle (Count)
system.cpu0.commit.numCommittedDist::mean     1.088578                       # Number of insts commited each cycle (Count)
system.cpu0.commit.numCommittedDist::stdev     1.830906                       # Number of insts commited each cycle (Count)
system.cpu0.commit.numCommittedDist::underflows            0      0.00%      0.00% # Number of insts commited each cycle (Count)
system.cpu0.commit.numCommittedDist::0      105860237     52.65%     52.65% # Number of insts commited each cycle (Count)
system.cpu0.commit.numCommittedDist::1       54659849     27.18%     79.83% # Number of insts commited each cycle (Count)
system.cpu0.commit.numCommittedDist::2       10732770      5.34%     85.17% # Number of insts commited each cycle (Count)
system.cpu0.commit.numCommittedDist::3       13426864      6.68%     91.85% # Number of insts commited each cycle (Count)
system.cpu0.commit.numCommittedDist::4        4900303      2.44%     94.28% # Number of insts commited each cycle (Count)
system.cpu0.commit.numCommittedDist::5        2500114      1.24%     95.53% # Number of insts commited each cycle (Count)
system.cpu0.commit.numCommittedDist::6         525524      0.26%     95.79% # Number of insts commited each cycle (Count)
system.cpu0.commit.numCommittedDist::7         534361      0.27%     96.05% # Number of insts commited each cycle (Count)
system.cpu0.commit.numCommittedDist::8        7935652      3.95%    100.00% # Number of insts commited each cycle (Count)
system.cpu0.commit.numCommittedDist::overflows            0      0.00%    100.00% # Number of insts commited each cycle (Count)
system.cpu0.commit.numCommittedDist::min_value            0                       # Number of insts commited each cycle (Count)
system.cpu0.commit.numCommittedDist::max_value            8                       # Number of insts commited each cycle (Count)
system.cpu0.commit.numCommittedDist::total    201075674                       # Number of insts commited each cycle (Count)
system.cpu0.commit.instsCommitted           127014105                       # Number of instructions committed (Count)
system.cpu0.commit.opsCommitted             218886650                       # Number of ops (including micro ops) committed (Count)
system.cpu0.commit.memRefs                   26281031                       # Number of memory references committed (Count)
system.cpu0.commit.loads                     18913242                       # Number of loads committed (Count)
system.cpu0.commit.amos                             0                       # Number of atomic instructions committed (Count)
system.cpu0.commit.membars                        544                       # Number of memory barriers committed (Count)
system.cpu0.commit.branches                   7890800                       # Number of branches committed (Count)
system.cpu0.commit.vectorInstructions               0                       # Number of committed Vector instructions. (Count)
system.cpu0.commit.floating                 139988070                       # Number of committed floating point instructions. (Count)
system.cpu0.commit.integer                  103015641                       # Number of committed integer instructions. (Count)
system.cpu0.commit.functionCalls              2097829                       # Number of function calls committed. (Count)
system.cpu0.commit.committedInstType_0::No_OpClass      2098087      0.96%      0.96% # Class of committed instruction (Count)
system.cpu0.commit.committedInstType_0::IntAlu     88793713     40.57%     41.52% # Class of committed instruction (Count)
system.cpu0.commit.committedInstType_0::IntMult           89      0.00%     41.52% # Class of committed instruction (Count)
system.cpu0.commit.committedInstType_0::IntDiv          231      0.00%     41.52% # Class of committed instruction (Count)
system.cpu0.commit.committedInstType_0::FloatAdd      6291679      2.87%     44.40% # Class of committed instruction (Count)
system.cpu0.commit.committedInstType_0::FloatCmp            0      0.00%     44.40% # Class of committed instruction (Count)
system.cpu0.commit.committedInstType_0::FloatCvt            0      0.00%     44.40% # Class of committed instruction (Count)
system.cpu0.commit.committedInstType_0::FloatMult            0      0.00%     44.40% # Class of committed instruction (Count)
system.cpu0.commit.committedInstType_0::FloatMultAcc            0      0.00%     44.40% # Class of committed instruction (Count)
system.cpu0.commit.committedInstType_0::FloatDiv            0      0.00%     44.40% # Class of committed instruction (Count)
system.cpu0.commit.committedInstType_0::FloatMisc            0      0.00%     44.40% # Class of committed instruction (Count)
system.cpu0.commit.committedInstType_0::FloatSqrt            0      0.00%     44.40% # Class of committed instruction (Count)
system.cpu0.commit.committedInstType_0::SimdAdd            0      0.00%     44.40% # Class of committed instruction (Count)
system.cpu0.commit.committedInstType_0::SimdAddAcc            0      0.00%     44.40% # Class of committed instruction (Count)
system.cpu0.commit.committedInstType_0::SimdAlu     17826158      8.14%     52.54% # Class of committed instruction (Count)
system.cpu0.commit.committedInstType_0::SimdCmp            0      0.00%     52.54% # Class of committed instruction (Count)
system.cpu0.commit.committedInstType_0::SimdCvt          308      0.00%     52.54% # Class of committed instruction (Count)
system.cpu0.commit.committedInstType_0::SimdMisc     17302162      7.90%     60.45% # Class of committed instruction (Count)
system.cpu0.commit.committedInstType_0::SimdMult            0      0.00%     60.45% # Class of committed instruction (Count)
system.cpu0.commit.committedInstType_0::SimdMultAcc            0      0.00%     60.45% # Class of committed instruction (Count)
system.cpu0.commit.committedInstType_0::SimdShift            0      0.00%     60.45% # Class of committed instruction (Count)
system.cpu0.commit.committedInstType_0::SimdShiftAcc            0      0.00%     60.45% # Class of committed instruction (Count)
system.cpu0.commit.committedInstType_0::SimdDiv            0      0.00%     60.45% # Class of committed instruction (Count)
system.cpu0.commit.committedInstType_0::SimdSqrt            0      0.00%     60.45% # Class of committed instruction (Count)
system.cpu0.commit.committedInstType_0::SimdFloatAdd     14155794      6.47%     66.92% # Class of committed instruction (Count)
system.cpu0.commit.committedInstType_0::SimdFloatAlu            0      0.00%     66.92% # Class of committed instruction (Count)
system.cpu0.commit.committedInstType_0::SimdFloatCmp            0      0.00%     66.92% # Class of committed instruction (Count)
system.cpu0.commit.committedInstType_0::SimdFloatCvt     17825821      8.14%     75.06% # Class of committed instruction (Count)
system.cpu0.commit.committedInstType_0::SimdFloatDiv            0      0.00%     75.06% # Class of committed instruction (Count)
system.cpu0.commit.committedInstType_0::SimdFloatMisc            0      0.00%     75.06% # Class of committed instruction (Count)
system.cpu0.commit.committedInstType_0::SimdFloatMult     28311577     12.93%     87.99% # Class of committed instruction (Count)
system.cpu0.commit.committedInstType_0::SimdFloatMultAcc            0      0.00%     87.99% # Class of committed instruction (Count)
system.cpu0.commit.committedInstType_0::SimdFloatSqrt            0      0.00%     87.99% # Class of committed instruction (Count)
system.cpu0.commit.committedInstType_0::SimdReduceAdd            0      0.00%     87.99% # Class of committed instruction (Count)
system.cpu0.commit.committedInstType_0::SimdReduceAlu            0      0.00%     87.99% # Class of committed instruction (Count)
system.cpu0.commit.committedInstType_0::SimdReduceCmp            0      0.00%     87.99% # Class of committed instruction (Count)
system.cpu0.commit.committedInstType_0::SimdFloatReduceAdd            0      0.00%     87.99% # Class of committed instruction (Count)
system.cpu0.commit.committedInstType_0::SimdFloatReduceCmp            0      0.00%     87.99% # Class of committed instruction (Count)
system.cpu0.commit.committedInstType_0::SimdAes            0      0.00%     87.99% # Class of committed instruction (Count)
system.cpu0.commit.committedInstType_0::SimdAesMix            0      0.00%     87.99% # Class of committed instruction (Count)
system.cpu0.commit.committedInstType_0::SimdSha1Hash            0      0.00%     87.99% # Class of committed instruction (Count)
system.cpu0.commit.committedInstType_0::SimdSha1Hash2            0      0.00%     87.99% # Class of committed instruction (Count)
system.cpu0.commit.committedInstType_0::SimdSha256Hash            0      0.00%     87.99% # Class of committed instruction (Count)
system.cpu0.commit.committedInstType_0::SimdSha256Hash2            0      0.00%     87.99% # Class of committed instruction (Count)
system.cpu0.commit.committedInstType_0::SimdShaSigma2            0      0.00%     87.99% # Class of committed instruction (Count)
system.cpu0.commit.committedInstType_0::SimdShaSigma3            0      0.00%     87.99% # Class of committed instruction (Count)
system.cpu0.commit.committedInstType_0::SimdPredAlu            0      0.00%     87.99% # Class of committed instruction (Count)
system.cpu0.commit.committedInstType_0::MemRead      9999947      4.57%     92.56% # Class of committed instruction (Count)
system.cpu0.commit.committedInstType_0::MemWrite      7366988      3.37%     95.93% # Class of committed instruction (Count)
system.cpu0.commit.committedInstType_0::FloatMemRead      8913295      4.07%    100.00% # Class of committed instruction (Count)
system.cpu0.commit.committedInstType_0::FloatMemWrite          801      0.00%    100.00% # Class of committed instruction (Count)
system.cpu0.commit.committedInstType_0::IprAccess            0      0.00%    100.00% # Class of committed instruction (Count)
system.cpu0.commit.committedInstType_0::InstPrefetch            0      0.00%    100.00% # Class of committed instruction (Count)
system.cpu0.commit.committedInstType_0::total    218886650                       # Class of committed instruction (Count)
system.cpu0.commit.commitEligibleSamples      7935652                       # number cycles where commit BW limit reached (Cycle)
system.cpu0.dcache.demandHits::cpu0.data     20315169                       # number of demand (read+write) hits (Count)
system.cpu0.dcache.demandHits::total         20315169                       # number of demand (read+write) hits (Count)
system.cpu0.dcache.overallHits::cpu0.data     20315169                       # number of overall hits (Count)
system.cpu0.dcache.overallHits::total        20315169                       # number of overall hits (Count)
system.cpu0.dcache.demandMisses::cpu0.data      3633071                       # number of demand (read+write) misses (Count)
system.cpu0.dcache.demandMisses::total        3633071                       # number of demand (read+write) misses (Count)
system.cpu0.dcache.overallMisses::cpu0.data      3633071                       # number of overall misses (Count)
system.cpu0.dcache.overallMisses::total       3633071                       # number of overall misses (Count)
system.cpu0.dcache.demandMissLatency::cpu0.data 218657861925                       # number of demand (read+write) miss ticks (Tick)
system.cpu0.dcache.demandMissLatency::total 218657861925                       # number of demand (read+write) miss ticks (Tick)
system.cpu0.dcache.overallMissLatency::cpu0.data 218657861925                       # number of overall miss ticks (Tick)
system.cpu0.dcache.overallMissLatency::total 218657861925                       # number of overall miss ticks (Tick)
system.cpu0.dcache.demandAccesses::cpu0.data     23948240                       # number of demand (read+write) accesses (Count)
system.cpu0.dcache.demandAccesses::total     23948240                       # number of demand (read+write) accesses (Count)
system.cpu0.dcache.overallAccesses::cpu0.data     23948240                       # number of overall (read+write) accesses (Count)
system.cpu0.dcache.overallAccesses::total     23948240                       # number of overall (read+write) accesses (Count)
system.cpu0.dcache.demandMissRate::cpu0.data     0.151705                       # miss rate for demand accesses (Ratio)
system.cpu0.dcache.demandMissRate::total     0.151705                       # miss rate for demand accesses (Ratio)
system.cpu0.dcache.overallMissRate::cpu0.data     0.151705                       # miss rate for overall accesses (Ratio)
system.cpu0.dcache.overallMissRate::total     0.151705                       # miss rate for overall accesses (Ratio)
system.cpu0.dcache.demandAvgMissLatency::cpu0.data 60185.408412                       # average overall miss latency in ticks ((Tick/Count))
system.cpu0.dcache.demandAvgMissLatency::total 60185.408412                       # average overall miss latency in ticks ((Tick/Count))
system.cpu0.dcache.overallAvgMissLatency::cpu0.data 60185.408412                       # average overall miss latency ((Tick/Count))
system.cpu0.dcache.overallAvgMissLatency::total 60185.408412                       # average overall miss latency ((Tick/Count))
system.cpu0.dcache.blockedCycles::no_mshrs         5031                       # number of cycles access was blocked (Cycle)
system.cpu0.dcache.blockedCycles::no_targets            0                       # number of cycles access was blocked (Cycle)
system.cpu0.dcache.blockedCauses::no_mshrs          113                       # number of times access was blocked (Count)
system.cpu0.dcache.blockedCauses::no_targets            0                       # number of times access was blocked (Count)
system.cpu0.dcache.avgBlocked::no_mshrs     44.522124                       # average number of cycles each access was blocked ((Cycle/Count))
system.cpu0.dcache.avgBlocked::no_targets          nan                       # average number of cycles each access was blocked ((Cycle/Count))
system.cpu0.dcache.writebacks::writebacks       992643                       # number of writebacks (Count)
system.cpu0.dcache.writebacks::total           992643                       # number of writebacks (Count)
system.cpu0.dcache.demandMshrHits::cpu0.data      2245568                       # number of demand (read+write) MSHR hits (Count)
system.cpu0.dcache.demandMshrHits::total      2245568                       # number of demand (read+write) MSHR hits (Count)
system.cpu0.dcache.overallMshrHits::cpu0.data      2245568                       # number of overall MSHR hits (Count)
system.cpu0.dcache.overallMshrHits::total      2245568                       # number of overall MSHR hits (Count)
system.cpu0.dcache.demandMshrMisses::cpu0.data      1387503                       # number of demand (read+write) MSHR misses (Count)
system.cpu0.dcache.demandMshrMisses::total      1387503                       # number of demand (read+write) MSHR misses (Count)
system.cpu0.dcache.overallMshrMisses::cpu0.data      1387503                       # number of overall MSHR misses (Count)
system.cpu0.dcache.overallMshrMisses::total      1387503                       # number of overall MSHR misses (Count)
system.cpu0.dcache.demandMshrMissLatency::cpu0.data  70727963901                       # number of demand (read+write) MSHR miss ticks (Tick)
system.cpu0.dcache.demandMshrMissLatency::total  70727963901                       # number of demand (read+write) MSHR miss ticks (Tick)
system.cpu0.dcache.overallMshrMissLatency::cpu0.data  70727963901                       # number of overall MSHR miss ticks (Tick)
system.cpu0.dcache.overallMshrMissLatency::total  70727963901                       # number of overall MSHR miss ticks (Tick)
system.cpu0.dcache.demandMshrMissRate::cpu0.data     0.057938                       # mshr miss ratio for demand accesses (Ratio)
system.cpu0.dcache.demandMshrMissRate::total     0.057938                       # mshr miss ratio for demand accesses (Ratio)
system.cpu0.dcache.overallMshrMissRate::cpu0.data     0.057938                       # mshr miss ratio for overall accesses (Ratio)
system.cpu0.dcache.overallMshrMissRate::total     0.057938                       # mshr miss ratio for overall accesses (Ratio)
system.cpu0.dcache.demandAvgMshrMissLatency::cpu0.data 50974.998902                       # average overall mshr miss latency ((Tick/Count))
system.cpu0.dcache.demandAvgMshrMissLatency::total 50974.998902                       # average overall mshr miss latency ((Tick/Count))
system.cpu0.dcache.overallAvgMshrMissLatency::cpu0.data 50974.998902                       # average overall mshr miss latency ((Tick/Count))
system.cpu0.dcache.overallAvgMshrMissLatency::total 50974.998902                       # average overall mshr miss latency ((Tick/Count))
system.cpu0.dcache.replacements               1382739                       # number of replacements (Count)
system.cpu0.dcache.LockedRMWReadReq.hits::cpu0.data          223                       # number of LockedRMWReadReq hits (Count)
system.cpu0.dcache.LockedRMWReadReq.hits::total          223                       # number of LockedRMWReadReq hits (Count)
system.cpu0.dcache.LockedRMWReadReq.misses::cpu0.data           49                       # number of LockedRMWReadReq misses (Count)
system.cpu0.dcache.LockedRMWReadReq.misses::total           49                       # number of LockedRMWReadReq misses (Count)
system.cpu0.dcache.LockedRMWReadReq.missLatency::cpu0.data      1241424                       # number of LockedRMWReadReq miss ticks (Tick)
system.cpu0.dcache.LockedRMWReadReq.missLatency::total      1241424                       # number of LockedRMWReadReq miss ticks (Tick)
system.cpu0.dcache.LockedRMWReadReq.accesses::cpu0.data          272                       # number of LockedRMWReadReq accesses(hits+misses) (Count)
system.cpu0.dcache.LockedRMWReadReq.accesses::total          272                       # number of LockedRMWReadReq accesses(hits+misses) (Count)
system.cpu0.dcache.LockedRMWReadReq.missRate::cpu0.data     0.180147                       # miss rate for LockedRMWReadReq accesses (Ratio)
system.cpu0.dcache.LockedRMWReadReq.missRate::total     0.180147                       # miss rate for LockedRMWReadReq accesses (Ratio)
system.cpu0.dcache.LockedRMWReadReq.avgMissLatency::cpu0.data 25335.183673                       # average LockedRMWReadReq miss latency ((Tick/Count))
system.cpu0.dcache.LockedRMWReadReq.avgMissLatency::total 25335.183673                       # average LockedRMWReadReq miss latency ((Tick/Count))
system.cpu0.dcache.LockedRMWReadReq.mshrMisses::cpu0.data           49                       # number of LockedRMWReadReq MSHR misses (Count)
system.cpu0.dcache.LockedRMWReadReq.mshrMisses::total           49                       # number of LockedRMWReadReq MSHR misses (Count)
system.cpu0.dcache.LockedRMWReadReq.mshrMissLatency::cpu0.data      3199131                       # number of LockedRMWReadReq MSHR miss ticks (Tick)
system.cpu0.dcache.LockedRMWReadReq.mshrMissLatency::total      3199131                       # number of LockedRMWReadReq MSHR miss ticks (Tick)
system.cpu0.dcache.LockedRMWReadReq.mshrMissRate::cpu0.data     0.180147                       # mshr miss rate for LockedRMWReadReq accesses (Ratio)
system.cpu0.dcache.LockedRMWReadReq.mshrMissRate::total     0.180147                       # mshr miss rate for LockedRMWReadReq accesses (Ratio)
system.cpu0.dcache.LockedRMWReadReq.avgMshrMissLatency::cpu0.data 65288.387755                       # average LockedRMWReadReq mshr miss latency ((Tick/Count))
system.cpu0.dcache.LockedRMWReadReq.avgMshrMissLatency::total 65288.387755                       # average LockedRMWReadReq mshr miss latency ((Tick/Count))
system.cpu0.dcache.LockedRMWWriteReq.hits::cpu0.data          272                       # number of LockedRMWWriteReq hits (Count)
system.cpu0.dcache.LockedRMWWriteReq.hits::total          272                       # number of LockedRMWWriteReq hits (Count)
system.cpu0.dcache.LockedRMWWriteReq.accesses::cpu0.data          272                       # number of LockedRMWWriteReq accesses(hits+misses) (Count)
system.cpu0.dcache.LockedRMWWriteReq.accesses::total          272                       # number of LockedRMWWriteReq accesses(hits+misses) (Count)
system.cpu0.dcache.ReadReq.hits::cpu0.data     13860282                       # number of ReadReq hits (Count)
system.cpu0.dcache.ReadReq.hits::total       13860282                       # number of ReadReq hits (Count)
system.cpu0.dcache.ReadReq.misses::cpu0.data      2720428                       # number of ReadReq misses (Count)
system.cpu0.dcache.ReadReq.misses::total      2720428                       # number of ReadReq misses (Count)
system.cpu0.dcache.ReadReq.missLatency::cpu0.data 184247771463                       # number of ReadReq miss ticks (Tick)
system.cpu0.dcache.ReadReq.missLatency::total 184247771463                       # number of ReadReq miss ticks (Tick)
system.cpu0.dcache.ReadReq.accesses::cpu0.data     16580710                       # number of ReadReq accesses(hits+misses) (Count)
system.cpu0.dcache.ReadReq.accesses::total     16580710                       # number of ReadReq accesses(hits+misses) (Count)
system.cpu0.dcache.ReadReq.missRate::cpu0.data     0.164072                       # miss rate for ReadReq accesses (Ratio)
system.cpu0.dcache.ReadReq.missRate::total     0.164072                       # miss rate for ReadReq accesses (Ratio)
system.cpu0.dcache.ReadReq.avgMissLatency::cpu0.data 67727.494153                       # average ReadReq miss latency ((Tick/Count))
system.cpu0.dcache.ReadReq.avgMissLatency::total 67727.494153                       # average ReadReq miss latency ((Tick/Count))
system.cpu0.dcache.ReadReq.mshrHits::cpu0.data      2245561                       # number of ReadReq MSHR hits (Count)
system.cpu0.dcache.ReadReq.mshrHits::total      2245561                       # number of ReadReq MSHR hits (Count)
system.cpu0.dcache.ReadReq.mshrMisses::cpu0.data       474867                       # number of ReadReq MSHR misses (Count)
system.cpu0.dcache.ReadReq.mshrMisses::total       474867                       # number of ReadReq MSHR misses (Count)
system.cpu0.dcache.ReadReq.mshrMissLatency::cpu0.data  36926111592                       # number of ReadReq MSHR miss ticks (Tick)
system.cpu0.dcache.ReadReq.mshrMissLatency::total  36926111592                       # number of ReadReq MSHR miss ticks (Tick)
system.cpu0.dcache.ReadReq.mshrMissRate::cpu0.data     0.028640                       # mshr miss rate for ReadReq accesses (Ratio)
system.cpu0.dcache.ReadReq.mshrMissRate::total     0.028640                       # mshr miss rate for ReadReq accesses (Ratio)
system.cpu0.dcache.ReadReq.avgMshrMissLatency::cpu0.data 77760.955366                       # average ReadReq mshr miss latency ((Tick/Count))
system.cpu0.dcache.ReadReq.avgMshrMissLatency::total 77760.955366                       # average ReadReq mshr miss latency ((Tick/Count))
system.cpu0.dcache.WriteReq.hits::cpu0.data      6454887                       # number of WriteReq hits (Count)
system.cpu0.dcache.WriteReq.hits::total       6454887                       # number of WriteReq hits (Count)
system.cpu0.dcache.WriteReq.misses::cpu0.data       912643                       # number of WriteReq misses (Count)
system.cpu0.dcache.WriteReq.misses::total       912643                       # number of WriteReq misses (Count)
system.cpu0.dcache.WriteReq.missLatency::cpu0.data  34410090462                       # number of WriteReq miss ticks (Tick)
system.cpu0.dcache.WriteReq.missLatency::total  34410090462                       # number of WriteReq miss ticks (Tick)
system.cpu0.dcache.WriteReq.accesses::cpu0.data      7367530                       # number of WriteReq accesses(hits+misses) (Count)
system.cpu0.dcache.WriteReq.accesses::total      7367530                       # number of WriteReq accesses(hits+misses) (Count)
system.cpu0.dcache.WriteReq.missRate::cpu0.data     0.123874                       # miss rate for WriteReq accesses (Ratio)
system.cpu0.dcache.WriteReq.missRate::total     0.123874                       # miss rate for WriteReq accesses (Ratio)
system.cpu0.dcache.WriteReq.avgMissLatency::cpu0.data 37703.779530                       # average WriteReq miss latency ((Tick/Count))
system.cpu0.dcache.WriteReq.avgMissLatency::total 37703.779530                       # average WriteReq miss latency ((Tick/Count))
system.cpu0.dcache.WriteReq.mshrHits::cpu0.data            7                       # number of WriteReq MSHR hits (Count)
system.cpu0.dcache.WriteReq.mshrHits::total            7                       # number of WriteReq MSHR hits (Count)
system.cpu0.dcache.WriteReq.mshrMisses::cpu0.data       912636                       # number of WriteReq MSHR misses (Count)
system.cpu0.dcache.WriteReq.mshrMisses::total       912636                       # number of WriteReq MSHR misses (Count)
system.cpu0.dcache.WriteReq.mshrMissLatency::cpu0.data  33801852309                       # number of WriteReq MSHR miss ticks (Tick)
system.cpu0.dcache.WriteReq.mshrMissLatency::total  33801852309                       # number of WriteReq MSHR miss ticks (Tick)
system.cpu0.dcache.WriteReq.mshrMissRate::cpu0.data     0.123873                       # mshr miss rate for WriteReq accesses (Ratio)
system.cpu0.dcache.WriteReq.mshrMissRate::total     0.123873                       # mshr miss rate for WriteReq accesses (Ratio)
system.cpu0.dcache.WriteReq.avgMshrMissLatency::cpu0.data 37037.605693                       # average WriteReq mshr miss latency ((Tick/Count))
system.cpu0.dcache.WriteReq.avgMshrMissLatency::total 37037.605693                       # average WriteReq mshr miss latency ((Tick/Count))
system.cpu0.dcache.power_state.pwrStateResidencyTicks::UNDEFINED  67103095068                       # Cumulative time (in ticks) in various power states (Tick)
system.cpu0.dcache.tags.tagsInUse          511.425845                       # Average ticks per tags in use ((Tick/Count))
system.cpu0.dcache.tags.totalRefs            21703308                       # Total number of references to valid blocks. (Count)
system.cpu0.dcache.tags.sampledRefs           1385319                       # Sample count of references to valid blocks. (Count)
system.cpu0.dcache.tags.avgRefs             15.666650                       # Average number of references to valid blocks. ((Count/Count))
system.cpu0.dcache.tags.warmupTick             187146                       # The tick when the warmup percentage was hit. (Tick)
system.cpu0.dcache.tags.occupancies::cpu0.data   511.425845                       # Average occupied blocks per tick, per requestor ((Count/Tick))
system.cpu0.dcache.tags.avgOccs::cpu0.data     0.998879                       # Average percentage of cache occupancy ((Ratio/Tick))
system.cpu0.dcache.tags.avgOccs::total       0.998879                       # Average percentage of cache occupancy ((Ratio/Tick))
system.cpu0.dcache.tags.occupanciesTaskId::1024          511                       # Occupied blocks per task id (Count)
system.cpu0.dcache.tags.ageTaskId_1024::0           30                       # Occupied blocks per task id, per block age (Count)
system.cpu0.dcache.tags.ageTaskId_1024::1          456                       # Occupied blocks per task id, per block age (Count)
system.cpu0.dcache.tags.ageTaskId_1024::2           19                       # Occupied blocks per task id, per block age (Count)
system.cpu0.dcache.tags.ageTaskId_1024::3            6                       # Occupied blocks per task id, per block age (Count)
system.cpu0.dcache.tags.ratioOccsTaskId::1024     0.998047                       # Ratio of occupied blocks and all blocks, per task id (Ratio)
system.cpu0.dcache.tags.tagAccesses         192975591                       # Number of tag accesses (Count)
system.cpu0.dcache.tags.dataAccesses        192975591                       # Number of data accesses (Count)
system.cpu0.dcache.tags.indexing_policy.setAccessHist::samples     28231588                       # Histogram of set associative cache access per set (Count)
system.cpu0.dcache.tags.indexing_policy.setAccessHist::mean    33.418121                       # Histogram of set associative cache access per set (Count)
system.cpu0.dcache.tags.indexing_policy.setAccessHist::gmean            0                       # Histogram of set associative cache access per set (Count)
system.cpu0.dcache.tags.indexing_policy.setAccessHist::stdev    15.272765                       # Histogram of set associative cache access per set (Count)
system.cpu0.dcache.tags.indexing_policy.setAccessHist::0       229469      0.81%      0.81% # Histogram of set associative cache access per set (Count)
system.cpu0.dcache.tags.indexing_policy.setAccessHist::1       230431      0.82%      1.63% # Histogram of set associative cache access per set (Count)
system.cpu0.dcache.tags.indexing_policy.setAccessHist::2       229241      0.81%      2.44% # Histogram of set associative cache access per set (Count)
system.cpu0.dcache.tags.indexing_policy.setAccessHist::3       229877      0.81%      3.26% # Histogram of set associative cache access per set (Count)
system.cpu0.dcache.tags.indexing_policy.setAccessHist::4       764013      2.71%      5.96% # Histogram of set associative cache access per set (Count)
system.cpu0.dcache.tags.indexing_policy.setAccessHist::5       230080      0.81%      6.78% # Histogram of set associative cache access per set (Count)
system.cpu0.dcache.tags.indexing_policy.setAccessHist::6       230160      0.82%      7.59% # Histogram of set associative cache access per set (Count)
system.cpu0.dcache.tags.indexing_policy.setAccessHist::7       230385      0.82%      8.41% # Histogram of set associative cache access per set (Count)
system.cpu0.dcache.tags.indexing_policy.setAccessHist::8       230485      0.82%      9.22% # Histogram of set associative cache access per set (Count)
system.cpu0.dcache.tags.indexing_policy.setAccessHist::9       229462      0.81%     10.04% # Histogram of set associative cache access per set (Count)
system.cpu0.dcache.tags.indexing_policy.setAccessHist::10       229493      0.81%     10.85% # Histogram of set associative cache access per set (Count)
system.cpu0.dcache.tags.indexing_policy.setAccessHist::11       228806      0.81%     11.66% # Histogram of set associative cache access per set (Count)
system.cpu0.dcache.tags.indexing_policy.setAccessHist::12       229022      0.81%     12.47% # Histogram of set associative cache access per set (Count)
system.cpu0.dcache.tags.indexing_policy.setAccessHist::13       229190      0.81%     13.28% # Histogram of set associative cache access per set (Count)
system.cpu0.dcache.tags.indexing_policy.setAccessHist::14       230495      0.82%     14.10% # Histogram of set associative cache access per set (Count)
system.cpu0.dcache.tags.indexing_policy.setAccessHist::15       231918      0.82%     14.92% # Histogram of set associative cache access per set (Count)
system.cpu0.dcache.tags.indexing_policy.setAccessHist::16       229477      0.81%     15.73% # Histogram of set associative cache access per set (Count)
system.cpu0.dcache.tags.indexing_policy.setAccessHist::17       230639      0.82%     16.55% # Histogram of set associative cache access per set (Count)
system.cpu0.dcache.tags.indexing_policy.setAccessHist::18       229849      0.81%     17.37% # Histogram of set associative cache access per set (Count)
system.cpu0.dcache.tags.indexing_policy.setAccessHist::19       229973      0.81%     18.18% # Histogram of set associative cache access per set (Count)
system.cpu0.dcache.tags.indexing_policy.setAccessHist::20       229833      0.81%     18.99% # Histogram of set associative cache access per set (Count)
system.cpu0.dcache.tags.indexing_policy.setAccessHist::21       230505      0.82%     19.81% # Histogram of set associative cache access per set (Count)
system.cpu0.dcache.tags.indexing_policy.setAccessHist::22       230153      0.82%     20.63% # Histogram of set associative cache access per set (Count)
system.cpu0.dcache.tags.indexing_policy.setAccessHist::23       231645      0.82%     21.45% # Histogram of set associative cache access per set (Count)
system.cpu0.dcache.tags.indexing_policy.setAccessHist::24       231164      0.82%     22.27% # Histogram of set associative cache access per set (Count)
system.cpu0.dcache.tags.indexing_policy.setAccessHist::25       247733      0.88%     23.14% # Histogram of set associative cache access per set (Count)
system.cpu0.dcache.tags.indexing_policy.setAccessHist::26       247429      0.88%     24.02% # Histogram of set associative cache access per set (Count)
system.cpu0.dcache.tags.indexing_policy.setAccessHist::27       247904      0.88%     24.90% # Histogram of set associative cache access per set (Count)
system.cpu0.dcache.tags.indexing_policy.setAccessHist::28       248608      0.88%     25.78% # Histogram of set associative cache access per set (Count)
system.cpu0.dcache.tags.indexing_policy.setAccessHist::29       247834      0.88%     26.66% # Histogram of set associative cache access per set (Count)
system.cpu0.dcache.tags.indexing_policy.setAccessHist::30       247364      0.88%     27.53% # Histogram of set associative cache access per set (Count)
system.cpu0.dcache.tags.indexing_policy.setAccessHist::31      8596212     30.45%     57.98% # Histogram of set associative cache access per set (Count)
system.cpu0.dcache.tags.indexing_policy.setAccessHist::32       230849      0.82%     58.80% # Histogram of set associative cache access per set (Count)
system.cpu0.dcache.tags.indexing_policy.setAccessHist::33       229989      0.81%     59.61% # Histogram of set associative cache access per set (Count)
system.cpu0.dcache.tags.indexing_policy.setAccessHist::34       230608      0.82%     60.43% # Histogram of set associative cache access per set (Count)
system.cpu0.dcache.tags.indexing_policy.setAccessHist::35       229474      0.81%     61.24% # Histogram of set associative cache access per set (Count)
system.cpu0.dcache.tags.indexing_policy.setAccessHist::36       229395      0.81%     62.06% # Histogram of set associative cache access per set (Count)
system.cpu0.dcache.tags.indexing_policy.setAccessHist::37       229221      0.81%     62.87% # Histogram of set associative cache access per set (Count)
system.cpu0.dcache.tags.indexing_policy.setAccessHist::38       231684      0.82%     63.69% # Histogram of set associative cache access per set (Count)
system.cpu0.dcache.tags.indexing_policy.setAccessHist::39       230031      0.81%     64.50% # Histogram of set associative cache access per set (Count)
system.cpu0.dcache.tags.indexing_policy.setAccessHist::40       229459      0.81%     65.32% # Histogram of set associative cache access per set (Count)
system.cpu0.dcache.tags.indexing_policy.setAccessHist::41       229121      0.81%     66.13% # Histogram of set associative cache access per set (Count)
system.cpu0.dcache.tags.indexing_policy.setAccessHist::42       230498      0.82%     66.94% # Histogram of set associative cache access per set (Count)
system.cpu0.dcache.tags.indexing_policy.setAccessHist::43       231056      0.82%     67.76% # Histogram of set associative cache access per set (Count)
system.cpu0.dcache.tags.indexing_policy.setAccessHist::44      2328623      8.25%     76.01% # Histogram of set associative cache access per set (Count)
system.cpu0.dcache.tags.indexing_policy.setAccessHist::45       231309      0.82%     76.83% # Histogram of set associative cache access per set (Count)
system.cpu0.dcache.tags.indexing_policy.setAccessHist::46       230951      0.82%     77.65% # Histogram of set associative cache access per set (Count)
system.cpu0.dcache.tags.indexing_policy.setAccessHist::47       249185      0.88%     78.53% # Histogram of set associative cache access per set (Count)
system.cpu0.dcache.tags.indexing_policy.setAccessHist::48       252592      0.89%     79.42% # Histogram of set associative cache access per set (Count)
system.cpu0.dcache.tags.indexing_policy.setAccessHist::49       405087      1.43%     80.86% # Histogram of set associative cache access per set (Count)
system.cpu0.dcache.tags.indexing_policy.setAccessHist::50       735133      2.60%     83.46% # Histogram of set associative cache access per set (Count)
system.cpu0.dcache.tags.indexing_policy.setAccessHist::51       965935      3.42%     86.89% # Histogram of set associative cache access per set (Count)
system.cpu0.dcache.tags.indexing_policy.setAccessHist::52       839202      2.97%     89.86% # Histogram of set associative cache access per set (Count)
system.cpu0.dcache.tags.indexing_policy.setAccessHist::53       504562      1.79%     91.64% # Histogram of set associative cache access per set (Count)
system.cpu0.dcache.tags.indexing_policy.setAccessHist::54       284847      1.01%     92.65% # Histogram of set associative cache access per set (Count)
system.cpu0.dcache.tags.indexing_policy.setAccessHist::55       232469      0.82%     93.48% # Histogram of set associative cache access per set (Count)
system.cpu0.dcache.tags.indexing_policy.setAccessHist::56       231211      0.82%     94.30% # Histogram of set associative cache access per set (Count)
system.cpu0.dcache.tags.indexing_policy.setAccessHist::57       229263      0.81%     95.11% # Histogram of set associative cache access per set (Count)
system.cpu0.dcache.tags.indexing_policy.setAccessHist::58       229348      0.81%     95.92% # Histogram of set associative cache access per set (Count)
system.cpu0.dcache.tags.indexing_policy.setAccessHist::59       229683      0.81%     96.73% # Histogram of set associative cache access per set (Count)
system.cpu0.dcache.tags.indexing_policy.setAccessHist::60       230598      0.82%     97.55% # Histogram of set associative cache access per set (Count)
system.cpu0.dcache.tags.indexing_policy.setAccessHist::61       230347      0.82%     98.37% # Histogram of set associative cache access per set (Count)
system.cpu0.dcache.tags.indexing_policy.setAccessHist::62       230362      0.82%     99.18% # Histogram of set associative cache access per set (Count)
system.cpu0.dcache.tags.indexing_policy.setAccessHist::63       230647      0.82%    100.00% # Histogram of set associative cache access per set (Count)
system.cpu0.dcache.tags.indexing_policy.setAccessHist::total     28231588                       # Histogram of set associative cache access per set (Count)
system.cpu0.dcache.tags.power_state.pwrStateResidencyTicks::UNDEFINED  67103095068                       # Cumulative time (in ticks) in various power states (Tick)
system.cpu0.decode.idleCycles                 8281839                       # Number of cycles decode is idle (Cycle)
system.cpu0.decode.blockedCycles            165406428                       # Number of cycles decode is blocked (Cycle)
system.cpu0.decode.runCycles                  4537783                       # Number of cycles decode is running (Cycle)
system.cpu0.decode.unblockCycles             22892851                       # Number of cycles decode is unblocking (Cycle)
system.cpu0.decode.squashCycles                  3608                       # Number of cycles decode is squashing (Cycle)
system.cpu0.decode.branchResolved             5805596                       # Number of times decode resolved a branch (Count)
system.cpu0.decode.branchMispred                  549                       # Number of times decode detected a branch misprediction (Count)
system.cpu0.decode.decodedInsts             219305817                       # Number of instructions handled by decode (Count)
system.cpu0.decode.squashedInsts                 2479                       # Number of squashed instructions handled by decode (Count)
system.cpu0.dtb_walker_cache.blockedCycles::no_mshrs            0                       # number of cycles access was blocked (Cycle)
system.cpu0.dtb_walker_cache.blockedCycles::no_targets            0                       # number of cycles access was blocked (Cycle)
system.cpu0.dtb_walker_cache.blockedCauses::no_mshrs            0                       # number of times access was blocked (Count)
system.cpu0.dtb_walker_cache.blockedCauses::no_targets            0                       # number of times access was blocked (Count)
system.cpu0.dtb_walker_cache.avgBlocked::no_mshrs          nan                       # average number of cycles each access was blocked ((Cycle/Count))
system.cpu0.dtb_walker_cache.avgBlocked::no_targets          nan                       # average number of cycles each access was blocked ((Cycle/Count))
system.cpu0.dtb_walker_cache.replacements            0                       # number of replacements (Count)
system.cpu0.dtb_walker_cache.power_state.pwrStateResidencyTicks::UNDEFINED  67103095068                       # Cumulative time (in ticks) in various power states (Tick)
system.cpu0.dtb_walker_cache.tags.tagsInUse            0                       # Average ticks per tags in use ((Tick/Count))
system.cpu0.dtb_walker_cache.tags.totalRefs            0                       # Total number of references to valid blocks. (Count)
system.cpu0.dtb_walker_cache.tags.sampledRefs            0                       # Sample count of references to valid blocks. (Count)
system.cpu0.dtb_walker_cache.tags.avgRefs          nan                       # Average number of references to valid blocks. ((Count/Count))
system.cpu0.dtb_walker_cache.tags.warmupTick            0                       # The tick when the warmup percentage was hit. (Tick)
system.cpu0.dtb_walker_cache.tags.tagAccesses            0                       # Number of tag accesses (Count)
system.cpu0.dtb_walker_cache.tags.dataAccesses            0                       # Number of data accesses (Count)
system.cpu0.dtb_walker_cache.tags.indexing_policy.tagAccessHist::samples        80815                       # Histogram of set associative cache access per tag (Count)
system.cpu0.dtb_walker_cache.tags.indexing_policy.tagAccessHist::mean     3.499288                       # Histogram of set associative cache access per tag (Count)
system.cpu0.dtb_walker_cache.tags.indexing_policy.tagAccessHist::gmean            0                       # Histogram of set associative cache access per tag (Count)
system.cpu0.dtb_walker_cache.tags.indexing_policy.tagAccessHist::stdev     2.291688                       # Histogram of set associative cache access per tag (Count)
system.cpu0.dtb_walker_cache.tags.indexing_policy.tagAccessHist::0        10118     12.52%     12.52% # Histogram of set associative cache access per tag (Count)
system.cpu0.dtb_walker_cache.tags.indexing_policy.tagAccessHist::1        10099     12.50%     25.02% # Histogram of set associative cache access per tag (Count)
system.cpu0.dtb_walker_cache.tags.indexing_policy.tagAccessHist::2        10100     12.50%     37.51% # Histogram of set associative cache access per tag (Count)
system.cpu0.dtb_walker_cache.tags.indexing_policy.tagAccessHist::3        10098     12.50%     50.01% # Histogram of set associative cache access per tag (Count)
system.cpu0.dtb_walker_cache.tags.indexing_policy.tagAccessHist::4        10099     12.50%     62.51% # Histogram of set associative cache access per tag (Count)
system.cpu0.dtb_walker_cache.tags.indexing_policy.tagAccessHist::5        10101     12.50%     75.00% # Histogram of set associative cache access per tag (Count)
system.cpu0.dtb_walker_cache.tags.indexing_policy.tagAccessHist::6        10099     12.50%     87.50% # Histogram of set associative cache access per tag (Count)
system.cpu0.dtb_walker_cache.tags.indexing_policy.tagAccessHist::7        10101     12.50%    100.00% # Histogram of set associative cache access per tag (Count)
system.cpu0.dtb_walker_cache.tags.indexing_policy.tagAccessHist::8            0      0.00%    100.00% # Histogram of set associative cache access per tag (Count)
system.cpu0.dtb_walker_cache.tags.indexing_policy.tagAccessHist::9            0      0.00%    100.00% # Histogram of set associative cache access per tag (Count)
system.cpu0.dtb_walker_cache.tags.indexing_policy.tagAccessHist::10            0      0.00%    100.00% # Histogram of set associative cache access per tag (Count)
system.cpu0.dtb_walker_cache.tags.indexing_policy.tagAccessHist::11            0      0.00%    100.00% # Histogram of set associative cache access per tag (Count)
system.cpu0.dtb_walker_cache.tags.indexing_policy.tagAccessHist::12            0      0.00%    100.00% # Histogram of set associative cache access per tag (Count)
system.cpu0.dtb_walker_cache.tags.indexing_policy.tagAccessHist::13            0      0.00%    100.00% # Histogram of set associative cache access per tag (Count)
system.cpu0.dtb_walker_cache.tags.indexing_policy.tagAccessHist::14            0      0.00%    100.00% # Histogram of set associative cache access per tag (Count)
system.cpu0.dtb_walker_cache.tags.indexing_policy.tagAccessHist::15            0      0.00%    100.00% # Histogram of set associative cache access per tag (Count)
system.cpu0.dtb_walker_cache.tags.indexing_policy.tagAccessHist::16            0      0.00%    100.00% # Histogram of set associative cache access per tag (Count)
system.cpu0.dtb_walker_cache.tags.indexing_policy.tagAccessHist::17            0      0.00%    100.00% # Histogram of set associative cache access per tag (Count)
system.cpu0.dtb_walker_cache.tags.indexing_policy.tagAccessHist::18            0      0.00%    100.00% # Histogram of set associative cache access per tag (Count)
system.cpu0.dtb_walker_cache.tags.indexing_policy.tagAccessHist::19            0      0.00%    100.00% # Histogram of set associative cache access per tag (Count)
system.cpu0.dtb_walker_cache.tags.indexing_policy.tagAccessHist::20            0      0.00%    100.00% # Histogram of set associative cache access per tag (Count)
system.cpu0.dtb_walker_cache.tags.indexing_policy.tagAccessHist::21            0      0.00%    100.00% # Histogram of set associative cache access per tag (Count)
system.cpu0.dtb_walker_cache.tags.indexing_policy.tagAccessHist::22            0      0.00%    100.00% # Histogram of set associative cache access per tag (Count)
system.cpu0.dtb_walker_cache.tags.indexing_policy.tagAccessHist::23            0      0.00%    100.00% # Histogram of set associative cache access per tag (Count)
system.cpu0.dtb_walker_cache.tags.indexing_policy.tagAccessHist::24            0      0.00%    100.00% # Histogram of set associative cache access per tag (Count)
system.cpu0.dtb_walker_cache.tags.indexing_policy.tagAccessHist::25            0      0.00%    100.00% # Histogram of set associative cache access per tag (Count)
system.cpu0.dtb_walker_cache.tags.indexing_policy.tagAccessHist::26            0      0.00%    100.00% # Histogram of set associative cache access per tag (Count)
system.cpu0.dtb_walker_cache.tags.indexing_policy.tagAccessHist::27            0      0.00%    100.00% # Histogram of set associative cache access per tag (Count)
system.cpu0.dtb_walker_cache.tags.indexing_policy.tagAccessHist::28            0      0.00%    100.00% # Histogram of set associative cache access per tag (Count)
system.cpu0.dtb_walker_cache.tags.indexing_policy.tagAccessHist::29            0      0.00%    100.00% # Histogram of set associative cache access per tag (Count)
system.cpu0.dtb_walker_cache.tags.indexing_policy.tagAccessHist::30            0      0.00%    100.00% # Histogram of set associative cache access per tag (Count)
system.cpu0.dtb_walker_cache.tags.indexing_policy.tagAccessHist::31            0      0.00%    100.00% # Histogram of set associative cache access per tag (Count)
system.cpu0.dtb_walker_cache.tags.indexing_policy.tagAccessHist::32            0      0.00%    100.00% # Histogram of set associative cache access per tag (Count)
system.cpu0.dtb_walker_cache.tags.indexing_policy.tagAccessHist::33            0      0.00%    100.00% # Histogram of set associative cache access per tag (Count)
system.cpu0.dtb_walker_cache.tags.indexing_policy.tagAccessHist::34            0      0.00%    100.00% # Histogram of set associative cache access per tag (Count)
system.cpu0.dtb_walker_cache.tags.indexing_policy.tagAccessHist::35            0      0.00%    100.00% # Histogram of set associative cache access per tag (Count)
system.cpu0.dtb_walker_cache.tags.indexing_policy.tagAccessHist::36            0      0.00%    100.00% # Histogram of set associative cache access per tag (Count)
system.cpu0.dtb_walker_cache.tags.indexing_policy.tagAccessHist::37            0      0.00%    100.00% # Histogram of set associative cache access per tag (Count)
system.cpu0.dtb_walker_cache.tags.indexing_policy.tagAccessHist::38            0      0.00%    100.00% # Histogram of set associative cache access per tag (Count)
system.cpu0.dtb_walker_cache.tags.indexing_policy.tagAccessHist::39            0      0.00%    100.00% # Histogram of set associative cache access per tag (Count)
system.cpu0.dtb_walker_cache.tags.indexing_policy.tagAccessHist::40            0      0.00%    100.00% # Histogram of set associative cache access per tag (Count)
system.cpu0.dtb_walker_cache.tags.indexing_policy.tagAccessHist::41            0      0.00%    100.00% # Histogram of set associative cache access per tag (Count)
system.cpu0.dtb_walker_cache.tags.indexing_policy.tagAccessHist::42            0      0.00%    100.00% # Histogram of set associative cache access per tag (Count)
system.cpu0.dtb_walker_cache.tags.indexing_policy.tagAccessHist::43            0      0.00%    100.00% # Histogram of set associative cache access per tag (Count)
system.cpu0.dtb_walker_cache.tags.indexing_policy.tagAccessHist::44            0      0.00%    100.00% # Histogram of set associative cache access per tag (Count)
system.cpu0.dtb_walker_cache.tags.indexing_policy.tagAccessHist::45            0      0.00%    100.00% # Histogram of set associative cache access per tag (Count)
system.cpu0.dtb_walker_cache.tags.indexing_policy.tagAccessHist::46            0      0.00%    100.00% # Histogram of set associative cache access per tag (Count)
system.cpu0.dtb_walker_cache.tags.indexing_policy.tagAccessHist::47            0      0.00%    100.00% # Histogram of set associative cache access per tag (Count)
system.cpu0.dtb_walker_cache.tags.indexing_policy.tagAccessHist::48            0      0.00%    100.00% # Histogram of set associative cache access per tag (Count)
system.cpu0.dtb_walker_cache.tags.indexing_policy.tagAccessHist::49            0      0.00%    100.00% # Histogram of set associative cache access per tag (Count)
system.cpu0.dtb_walker_cache.tags.indexing_policy.tagAccessHist::50            0      0.00%    100.00% # Histogram of set associative cache access per tag (Count)
system.cpu0.dtb_walker_cache.tags.indexing_policy.tagAccessHist::51            0      0.00%    100.00% # Histogram of set associative cache access per tag (Count)
system.cpu0.dtb_walker_cache.tags.indexing_policy.tagAccessHist::52            0      0.00%    100.00% # Histogram of set associative cache access per tag (Count)
[...]
system.monitor.ittReqReq::55001-60000           31163      1.70%     80.45% # Request-to-request inter transaction time (Tick)
system.monitor.ittReqReq::60001-65000           32447      1.77%     82.22% # Request-to-request inter transaction time (Tick)
system.monitor.ittReqReq::65001-70000           47372      2.59%     84.81% # Request-to-request inter transaction time (Tick)
system.monitor.ittReqReq::70001-75000           75939      4.15%     88.96% # Request-to-request inter transaction time (Tick)
system.monitor.ittReqReq::75001-80000           16191      0.88%     89.84% # Request-to-request inter transaction time (Tick)
system.monitor.ittReqReq::80001-85000           22680      1.24%     91.08% # Request-to-request inter transaction time (Tick)
system.monitor.ittReqReq::85001-90000           10958      0.60%     91.68% # Request-to-request inter transaction time (Tick)
system.monitor.ittReqReq::90001-95000           11574      0.63%     92.31% # Request-to-request inter transaction time (Tick)
system.monitor.ittReqReq::95001-100000          14532      0.79%     93.11% # Request-to-request inter transaction time (Tick)
system.monitor.ittReqReq::overflows            126146      6.89%    100.00% # Request-to-request inter transaction time (Tick)
system.monitor.ittReqReq::min_value               333                       # Request-to-request inter transaction time (Tick)
system.monitor.ittReqReq::max_value           2803194                       # Request-to-request inter transaction time (Tick)
system.monitor.ittReqReq::total               1830226                       # Request-to-request inter transaction time (Tick)
system.monitor.outstandingReadsHist::samples           67                       # Outstanding read transactions (Count)
system.monitor.outstandingReadsHist::mean     1.686567                       # Outstanding read transactions (Count)
system.monitor.outstandingReadsHist::gmean            0                       # Outstanding read transactions (Count)
system.monitor.outstandingReadsHist::stdev     1.383988                       # Outstanding read transactions (Count)
system.monitor.outstandingReadsHist::0             21     31.34%     31.34% # Outstanding read transactions (Count)
system.monitor.outstandingReadsHist::1              7     10.45%     41.79% # Outstanding read transactions (Count)
system.monitor.outstandingReadsHist::2             18     26.87%     68.66% # Outstanding read transactions (Count)
system.monitor.outstandingReadsHist::3             14     20.90%     89.55% # Outstanding read transactions (Count)
system.monitor.outstandingReadsHist::4              7     10.45%    100.00% # Outstanding read transactions (Count)
system.monitor.outstandingReadsHist::5              0      0.00%    100.00% # Outstanding read transactions (Count)
system.monitor.outstandingReadsHist::6              0      0.00%    100.00% # Outstanding read transactions (Count)
system.monitor.outstandingReadsHist::7              0      0.00%    100.00% # Outstanding read transactions (Count)
system.monitor.outstandingReadsHist::8              0      0.00%    100.00% # Outstanding read transactions (Count)
system.monitor.outstandingReadsHist::9              0      0.00%    100.00% # Outstanding read transactions (Count)
system.monitor.outstandingReadsHist::10             0      0.00%    100.00% # Outstanding read transactions (Count)
system.monitor.outstandingReadsHist::11             0      0.00%    100.00% # Outstanding read transactions (Count)
system.monitor.outstandingReadsHist::12             0      0.00%    100.00% # Outstanding read transactions (Count)
system.monitor.outstandingReadsHist::13             0      0.00%    100.00% # Outstanding read transactions (Count)
system.monitor.outstandingReadsHist::14             0      0.00%    100.00% # Outstanding read transactions (Count)
system.monitor.outstandingReadsHist::15             0      0.00%    100.00% # Outstanding read transactions (Count)
system.monitor.outstandingReadsHist::16             0      0.00%    100.00% # Outstanding read transactions (Count)
system.monitor.outstandingReadsHist::17             0      0.00%    100.00% # Outstanding read transactions (Count)
system.monitor.outstandingReadsHist::18             0      0.00%    100.00% # Outstanding read transactions (Count)
system.monitor.outstandingReadsHist::19             0      0.00%    100.00% # Outstanding read transactions (Count)
system.monitor.outstandingReadsHist::total           67                       # Outstanding read transactions (Count)
system.monitor.outstandingWritesHist::samples           67                       # Outstanding write transactions (Count)
system.monitor.outstandingWritesHist::mean            0                       # Outstanding write transactions (Count)
system.monitor.outstandingWritesHist::gmean            0                       # Outstanding write transactions (Count)
system.monitor.outstandingWritesHist::stdev            0                       # Outstanding write transactions (Count)
system.monitor.outstandingWritesHist::0            67    100.00%    100.00% # Outstanding write transactions (Count)
system.monitor.outstandingWritesHist::1             0      0.00%    100.00% # Outstanding write transactions (Count)
system.monitor.outstandingWritesHist::2             0      0.00%    100.00% # Outstanding write transactions (Count)
system.monitor.outstandingWritesHist::3             0      0.00%    100.00% # Outstanding write transactions (Count)
system.monitor.outstandingWritesHist::4             0      0.00%    100.00% # Outstanding write transactions (Count)
system.monitor.outstandingWritesHist::5             0      0.00%    100.00% # Outstanding write transactions (Count)
system.monitor.outstandingWritesHist::6             0      0.00%    100.00% # Outstanding write transactions (Count)
system.monitor.outstandingWritesHist::7             0      0.00%    100.00% # Outstanding write transactions (Count)
system.monitor.outstandingWritesHist::8             0      0.00%    100.00% # Outstanding write transactions (Count)
system.monitor.outstandingWritesHist::9             0      0.00%    100.00% # Outstanding write transactions (Count)
system.monitor.outstandingWritesHist::10            0      0.00%    100.00% # Outstanding write transactions (Count)
system.monitor.outstandingWritesHist::11            0      0.00%    100.00% # Outstanding write transactions (Count)
system.monitor.outstandingWritesHist::12            0      0.00%    100.00% # Outstanding write transactions (Count)
system.monitor.outstandingWritesHist::13            0      0.00%    100.00% # Outstanding write transactions (Count)
system.monitor.outstandingWritesHist::14            0      0.00%    100.00% # Outstanding write transactions (Count)
system.monitor.outstandingWritesHist::15            0      0.00%    100.00% # Outstanding write transactions (Count)
system.monitor.outstandingWritesHist::16            0      0.00%    100.00% # Outstanding write transactions (Count)
system.monitor.outstandingWritesHist::17            0      0.00%    100.00% # Outstanding write transactions (Count)
system.monitor.outstandingWritesHist::18            0      0.00%    100.00% # Outstanding write transactions (Count)
system.monitor.outstandingWritesHist::19            0      0.00%    100.00% # Outstanding write transactions (Count)
system.monitor.outstandingWritesHist::total           67                       # Outstanding write transactions (Count)
system.monitor.readTransHist::samples              67                       # Histogram of read transactions per sample period (Count)
system.monitor.readTransHist::mean       19181.731343                       # Histogram of read transactions per sample period (Count)
system.monitor.readTransHist::gmean      14348.431971                       # Histogram of read transactions per sample period (Count)
system.monitor.readTransHist::stdev      12236.498292                       # Histogram of read transactions per sample period (Count)
system.monitor.readTransHist::0-4095                0      0.00%      0.00% # Histogram of read transactions per sample period (Count)
system.monitor.readTransHist::4096-8191            26     38.81%     38.81% # Histogram of read transactions per sample period (Count)
system.monitor.readTransHist::8192-12287            0      0.00%     38.81% # Histogram of read transactions per sample period (Count)
system.monitor.readTransHist::12288-16383            0      0.00%     38.81% # Histogram of read transactions per sample period (Count)
system.monitor.readTransHist::16384-20479            0      0.00%     38.81% # Histogram of read transactions per sample period (Count)
system.monitor.readTransHist::20480-24575           18     26.87%     65.67% # Histogram of read transactions per sample period (Count)
system.monitor.readTransHist::24576-28671           12     17.91%     83.58% # Histogram of read transactions per sample period (Count)
system.monitor.readTransHist::28672-32767            1      1.49%     85.07% # Histogram of read transactions per sample period (Count)
system.monitor.readTransHist::32768-36863            6      8.96%     94.03% # Histogram of read transactions per sample period (Count)
system.monitor.readTransHist::36864-40959            1      1.49%     95.52% # Histogram of read transactions per sample period (Count)
system.monitor.readTransHist::40960-45055            2      2.99%     98.51% # Histogram of read transactions per sample period (Count)
system.monitor.readTransHist::45056-49151            1      1.49%    100.00% # Histogram of read transactions per sample period (Count)
system.monitor.readTransHist::49152-53247            0      0.00%    100.00% # Histogram of read transactions per sample period (Count)
system.monitor.readTransHist::53248-57343            0      0.00%    100.00% # Histogram of read transactions per sample period (Count)
system.monitor.readTransHist::57344-61439            0      0.00%    100.00% # Histogram of read transactions per sample period (Count)
system.monitor.readTransHist::61440-65535            0      0.00%    100.00% # Histogram of read transactions per sample period (Count)
system.monitor.readTransHist::65536-69631            0      0.00%    100.00% # Histogram of read transactions per sample period (Count)
system.monitor.readTransHist::69632-73727            0      0.00%    100.00% # Histogram of read transactions per sample period (Count)
system.monitor.readTransHist::73728-77823            0      0.00%    100.00% # Histogram of read transactions per sample period (Count)
system.monitor.readTransHist::77824-81919            0      0.00%    100.00% # Histogram of read transactions per sample period (Count)
system.monitor.readTransHist::total                67                       # Histogram of read transactions per sample period (Count)
system.monitor.writeTransHist::samples             67                       # Histogram of write transactions per sample period (Count)
system.monitor.writeTransHist::mean       8092.119403                       # Histogram of write transactions per sample period (Count)
system.monitor.writeTransHist::gmean                0                       # Histogram of write transactions per sample period (Count)
system.monitor.writeTransHist::stdev      6061.709299                       # Histogram of write transactions per sample period (Count)
system.monitor.writeTransHist::0-2047              10     14.93%     14.93% # Histogram of write transactions per sample period (Count)
system.monitor.writeTransHist::2048-4095            2      2.99%     17.91% # Histogram of write transactions per sample period (Count)
system.monitor.writeTransHist::4096-6143           21     31.34%     49.25% # Histogram of write transactions per sample period (Count)
system.monitor.writeTransHist::6144-8191            4      5.97%     55.22% # Histogram of write transactions per sample period (Count)
system.monitor.writeTransHist::8192-10239            5      7.46%     62.69% # Histogram of write transactions per sample period (Count)
system.monitor.writeTransHist::10240-12287           13     19.40%     82.09% # Histogram of write transactions per sample period (Count)
system.monitor.writeTransHist::12288-14335            6      8.96%     91.04% # Histogram of write transactions per sample period (Count)
system.monitor.writeTransHist::14336-16383            2      2.99%     94.03% # Histogram of write transactions per sample period (Count)
system.monitor.writeTransHist::16384-18431            2      2.99%     97.01% # Histogram of write transactions per sample period (Count)
system.monitor.writeTransHist::18432-20479            0      0.00%     97.01% # Histogram of write transactions per sample period (Count)
system.monitor.writeTransHist::20480-22527            0      0.00%     97.01% # Histogram of write transactions per sample period (Count)
system.monitor.writeTransHist::22528-24575            0      0.00%     97.01% # Histogram of write transactions per sample period (Count)
system.monitor.writeTransHist::24576-26623            0      0.00%     97.01% # Histogram of write transactions per sample period (Count)
system.monitor.writeTransHist::26624-28671            1      1.49%     98.51% # Histogram of write transactions per sample period (Count)
system.monitor.writeTransHist::28672-30719            0      0.00%     98.51% # Histogram of write transactions per sample period (Count)
system.monitor.writeTransHist::30720-32767            1      1.49%    100.00% # Histogram of write transactions per sample period (Count)
system.monitor.writeTransHist::32768-34815            0      0.00%    100.00% # Histogram of write transactions per sample period (Count)
system.monitor.writeTransHist::34816-36863            0      0.00%    100.00% # Histogram of write transactions per sample period (Count)
system.monitor.writeTransHist::36864-38911            0      0.00%    100.00% # Histogram of write transactions per sample period (Count)
system.monitor.writeTransHist::38912-40959            0      0.00%    100.00% # Histogram of write transactions per sample period (Count)
system.monitor.writeTransHist::total               67                       # Histogram of write transactions per sample period (Count)
system.tollcbus.transDist::ReadResp            786054                       # Transaction distribution (Count)
system.tollcbus.transDist::WritebackDirty      1003773                       # Transaction distribution (Count)
system.tollcbus.transDist::CleanEvict         1561027                       # Transaction distribution (Count)
system.tollcbus.transDist::UpgradeReq            4389                       # Transaction distribution (Count)
system.tollcbus.transDist::UpgradeResp           4389                       # Transaction distribution (Count)
system.tollcbus.transDist::ReadExReq           530156                       # Transaction distribution (Count)
system.tollcbus.transDist::ReadExResp          530156                       # Transaction distribution (Count)
system.tollcbus.transDist::ReadSharedReq       786054                       # Transaction distribution (Count)
system.tollcbus.pktCount_system.cpu0.l2cache.mem_side_port::system.monitor-cpu_side_port      1929747                       # Packet count per connected requestor and responder (Count)
system.tollcbus.pktCount_system.cpu1.l2cache.mem_side_port::system.monitor-cpu_side_port      1920831                       # Packet count per connected requestor and responder (Count)
system.tollcbus.pktCount::total               3850578                       # Packet count per connected requestor and responder (Count)
system.tollcbus.pktSize_system.cpu0.l2cache.mem_side_port::system.monitor-cpu_side_port     58678464                       # Cumulative packet size per connected requestor and responder (Byte)
system.tollcbus.pktSize_system.cpu1.l2cache.mem_side_port::system.monitor-cpu_side_port     58451840                       # Cumulative packet size per connected requestor and responder (Byte)
system.tollcbus.pktSize::total              117130304                       # Cumulative packet size per connected requestor and responder (Byte)
system.tollcbus.snoops                        1355420                       # Total snoops (Count)
system.tollcbus.snoopTraffic                 31348608                       # Total snoop traffic (Byte)
system.tollcbus.snoopFanout::samples          2642760                       # Request fanout histogram (Count)
system.tollcbus.snoopFanout::mean            0.150685                       # Request fanout histogram (Count)
system.tollcbus.snoopFanout::stdev           0.363321                       # Request fanout histogram (Count)
system.tollcbus.snoopFanout::underflows             0      0.00%      0.00% # Request fanout histogram (Count)
system.tollcbus.snoopFanout::0                2249853     85.13%     85.13% # Request fanout histogram (Count)
system.tollcbus.snoopFanout::1                 387591     14.67%     99.80% # Request fanout histogram (Count)
system.tollcbus.snoopFanout::2                   5316      0.20%    100.00% # Request fanout histogram (Count)
system.tollcbus.snoopFanout::overflows              0      0.00%    100.00% # Request fanout histogram (Count)
system.tollcbus.snoopFanout::min_value              0                       # Request fanout histogram (Count)
system.tollcbus.snoopFanout::max_value              2                       # Request fanout histogram (Count)
system.tollcbus.snoopFanout::total            2642760                       # Request fanout histogram (Count)
system.tollcbus.power_state.pwrStateResidencyTicks::UNDEFINED  67103095068                       # Cumulative time (in ticks) in various power states (Tick)
system.tollcbus.reqLayer0.occupancy        1215392039                       # Layer occupancy (ticks) (Tick)
system.tollcbus.reqLayer0.utilization             0.0                       # Layer utilization (Ratio)
system.tollcbus.respLayer0.occupancy        658931238                       # Layer occupancy (ticks) (Tick)
system.tollcbus.respLayer0.utilization            0.0                       # Layer utilization (Ratio)
system.tollcbus.respLayer1.occupancy        657529005                       # Layer occupancy (ticks) (Tick)
system.tollcbus.respLayer1.utilization            0.0                       # Layer utilization (Ratio)
system.tollcbus.snoop_filter.totRequests      2563238                       # Total number of requests made to the snoop filter. (Count)
system.tollcbus.snoop_filter.hitSingleRequests      1246888                       # Number of requests hitting in the snoop filter with a single holder of the requested data. (Count)
system.tollcbus.snoop_filter.hitMultiRequests        33011                       # Number of requests hitting in the snoop filter with multiple (>1) holders of the requested data. (Count)
system.tollcbus.snoop_filter.totSnoops         355657                       # Total number of snoops made to the snoop filter. (Count)
system.tollcbus.snoop_filter.hitSingleSnoops       350341                       # Number of snoops hitting in the snoop filter with a single holder of the requested data. (Count)
system.tollcbus.snoop_filter.hitMultiSnoops         5316                       # Number of snoops hitting in the snoop filter with multiple (>1) holders of the requested data. (Count)
system.voltage_domain.voltage                       1                       # Voltage in Volts (Volt)
system.workload.inst.arm                            0                       # number of arm instructions executed (Count)
system.workload.inst.quiesce                        0                       # number of quiesce instructions executed (Count)

---------- End Simulation Statistics   ----------
