
---------- Begin Simulation Statistics ----------
simSeconds                                   0.008617                       # Number of seconds simulated (Second)
simTicks                                   8616817224                       # Number of ticks simulated (Tick)
finalTick                                  8616817224                       # Number of ticks from beginning of simulation (restored from checkpoints and never reset) (Tick)
simFreq                                  1000000000000                       # The number of ticks per simulated second ((Tick/Second))
hostSeconds                                    306.69                       # Real time elapsed on the host (Second)
hostTickRate                                 28095974                       # The number of ticks simulated per host second (ticks/s) ((Tick/Second))
hostMemory                                     744276                       # Number of bytes of host memory used (Byte)
simInsts                                     54456441                       # Number of instructions simulated (Count)
simOps                                       89561072                       # Number of ops (including micro ops) simulated (Count)
hostInstRate                                   177556                       # Simulator instruction rate (inst/s) ((Count/Second))
hostOpRate                                     292016                       # Simulator op (including micro ops) rate (op/s) ((Count/Second))
system.clk_domain.clock                          1000                       # Clock period in ticks (Tick)
system.cpu0.numCycles                        25702500                       # Number of cpu cycles simulated (Cycle)
system.cpu0.numWorkItemsStarted                     0                       # Number of work items this cpu started (Count)
system.cpu0.numWorkItemsCompleted                   0                       # Number of work items this cpu completed (Count)
system.cpu0.instsAdded                       67452582                       # Number of instructions added to the IQ (excludes non-spec) (Count)
system.cpu0.nonSpecInstsAdded                    1281                       # Number of non-speculative instructions added to the IQ (Count)
system.cpu0.instsIssued                      67259885                       # Number of instructions issued (Count)
system.cpu0.squashedInstsIssued                  4138                       # Number of squashed instructions issued (Count)
system.cpu0.squashedInstsExamined              951906                       # Number of squashed instructions iterated over during squash; mainly for profiling (Count)
system.cpu0.squashedOperandsExamined           991875                       # Number of squashed operands that are examined and possibly removed from graph (Count)
system.cpu0.squashedNonSpecRemoved                567                       # Number of squashed non-spec instructions that were removed (Count)
system.cpu0.numIssuedDist::samples           25523385                       # Number of insts issued each cycle (Count)
system.cpu0.numIssuedDist::mean              2.635226                       # Number of insts issued each cycle (Count)
system.cpu0.numIssuedDist::stdev             2.613167                       # Number of insts issued each cycle (Count)
system.cpu0.numIssuedDist::underflows               0      0.00%      0.00% # Number of insts issued each cycle (Count)
system.cpu0.numIssuedDist::0                 10023689     39.27%     39.27% # Number of insts issued each cycle (Count)
system.cpu0.numIssuedDist::1                  1003275      3.93%     43.20% # Number of insts issued each cycle (Count)
system.cpu0.numIssuedDist::2                  1997852      7.83%     51.03% # Number of insts issued each cycle (Count)
system.cpu0.numIssuedDist::3                  2914156     11.42%     62.45% # Number of insts issued each cycle (Count)
system.cpu0.numIssuedDist::4                  2738237     10.73%     73.18% # Number of insts issued each cycle (Count)
system.cpu0.numIssuedDist::5                  2167495      8.49%     81.67% # Number of insts issued each cycle (Count)
system.cpu0.numIssuedDist::6                  2199867      8.62%     90.29% # Number of insts issued each cycle (Count)
system.cpu0.numIssuedDist::7                  1301699      5.10%     95.39% # Number of insts issued each cycle (Count)
system.cpu0.numIssuedDist::8                  1177115      4.61%    100.00% # Number of insts issued each cycle (Count)
system.cpu0.numIssuedDist::overflows                0      0.00%    100.00% # Number of insts issued each cycle (Count)
system.cpu0.numIssuedDist::min_value                0                       # Number of insts issued each cycle (Count)
system.cpu0.numIssuedDist::max_value                8                       # Number of insts issued each cycle (Count)
system.cpu0.numIssuedDist::total             25523385                       # Number of insts issued each cycle (Count)
system.cpu0.statFuBusy::No_OpClass                  0      0.00%      0.00% # attempts to use FU when none available (Count)
system.cpu0.statFuBusy::IntAlu                 215752     78.21%     78.21% # attempts to use FU when none available (Count)
system.cpu0.statFuBusy::IntMult                     0      0.00%     78.21% # attempts to use FU when none available (Count)
system.cpu0.statFuBusy::IntDiv                      0      0.00%     78.21% # attempts to use FU when none available (Count)
system.cpu0.statFuBusy::FloatAdd                    0      0.00%     78.21% # attempts to use FU when none available (Count)
system.cpu0.statFuBusy::FloatCmp                    0      0.00%     78.21% # attempts to use FU when none available (Count)
system.cpu0.statFuBusy::FloatCvt                    0      0.00%     78.21% # attempts to use FU when none available (Count)
system.cpu0.statFuBusy::FloatMult                   0      0.00%     78.21% # attempts to use FU when none available (Count)
system.cpu0.statFuBusy::FloatMultAcc                0      0.00%     78.21% # attempts to use FU when none available (Count)
system.cpu0.statFuBusy::FloatDiv                    0      0.00%     78.21% # attempts to use FU when none available (Count)
system.cpu0.statFuBusy::FloatMisc                   0      0.00%     78.21% # attempts to use FU when none available (Count)
system.cpu0.statFuBusy::FloatSqrt                   0      0.00%     78.21% # attempts to use FU when none available (Count)
system.cpu0.statFuBusy::SimdAdd                     0      0.00%     78.21% # attempts to use FU when none available (Count)
system.cpu0.statFuBusy::SimdAddAcc                  0      0.00%     78.21% # attempts to use FU when none available (Count)
system.cpu0.statFuBusy::SimdAlu                 14280      5.18%     83.38% # attempts to use FU when none available (Count)
system.cpu0.statFuBusy::SimdCmp                     1      0.00%     83.38% # attempts to use FU when none available (Count)
system.cpu0.statFuBusy::SimdCvt                    40      0.01%     83.40% # attempts to use FU when none available (Count)
system.cpu0.statFuBusy::SimdMisc                    5      0.00%     83.40% # attempts to use FU when none available (Count)
system.cpu0.statFuBusy::SimdMult                    0      0.00%     83.40% # attempts to use FU when none available (Count)
system.cpu0.statFuBusy::SimdMultAcc                 0      0.00%     83.40% # attempts to use FU when none available (Count)
system.cpu0.statFuBusy::SimdShift                   0      0.00%     83.40% # attempts to use FU when none available (Count)
system.cpu0.statFuBusy::SimdShiftAcc                0      0.00%     83.40% # attempts to use FU when none available (Count)
system.cpu0.statFuBusy::SimdDiv                     0      0.00%     83.40% # attempts to use FU when none available (Count)
system.cpu0.statFuBusy::SimdSqrt                    0      0.00%     83.40% # attempts to use FU when none available (Count)
system.cpu0.statFuBusy::SimdFloatAdd              227      0.08%     83.48% # attempts to use FU when none available (Count)
system.cpu0.statFuBusy::SimdFloatAlu                0      0.00%     83.48% # attempts to use FU when none available (Count)
system.cpu0.statFuBusy::SimdFloatCmp                0      0.00%     83.48% # attempts to use FU when none available (Count)
system.cpu0.statFuBusy::SimdFloatCvt                1      0.00%     83.48% # attempts to use FU when none available (Count)
system.cpu0.statFuBusy::SimdFloatDiv                0      0.00%     83.48% # attempts to use FU when none available (Count)
system.cpu0.statFuBusy::SimdFloatMisc               0      0.00%     83.48% # attempts to use FU when none available (Count)
system.cpu0.statFuBusy::SimdFloatMult           26505      9.61%     93.09% # attempts to use FU when none available (Count)
system.cpu0.statFuBusy::SimdFloatMultAcc            0      0.00%     93.09% # attempts to use FU when none available (Count)
system.cpu0.statFuBusy::SimdFloatSqrt               0      0.00%     93.09% # attempts to use FU when none available (Count)
system.cpu0.statFuBusy::SimdReduceAdd               0      0.00%     93.09% # attempts to use FU when none available (Count)
system.cpu0.statFuBusy::SimdReduceAlu               0      0.00%     93.09% # attempts to use FU when none available (Count)
system.cpu0.statFuBusy::SimdReduceCmp               0      0.00%     93.09% # attempts to use FU when none available (Count)
system.cpu0.statFuBusy::SimdFloatReduceAdd            0      0.00%     93.09% # attempts to use FU when none available (Count)
system.cpu0.statFuBusy::SimdFloatReduceCmp            0      0.00%     93.09% # attempts to use FU when none available (Count)
system.cpu0.statFuBusy::SimdAes                     0      0.00%     93.09% # attempts to use FU when none available (Count)
system.cpu0.statFuBusy::SimdAesMix                  0      0.00%     93.09% # attempts to use FU when none available (Count)
system.cpu0.statFuBusy::SimdSha1Hash                0      0.00%     93.09% # attempts to use FU when none available (Count)
system.cpu0.statFuBusy::SimdSha1Hash2               0      0.00%     93.09% # attempts to use FU when none available (Count)
system.cpu0.statFuBusy::SimdSha256Hash              0      0.00%     93.09% # attempts to use FU when none available (Count)
system.cpu0.statFuBusy::SimdSha256Hash2             0      0.00%     93.09% # attempts to use FU when none available (Count)
system.cpu0.statFuBusy::SimdShaSigma2               0      0.00%     93.09% # attempts to use FU when none available (Count)
system.cpu0.statFuBusy::SimdShaSigma3               0      0.00%     93.09% # attempts to use FU when none available (Count)
system.cpu0.statFuBusy::SimdPredAlu                 0      0.00%     93.09% # attempts to use FU when none available (Count)
system.cpu0.statFuBusy::MemRead                   473      0.17%     93.26% # attempts to use FU when none available (Count)
system.cpu0.statFuBusy::MemWrite                  800      0.29%     93.55% # attempts to use FU when none available (Count)
system.cpu0.statFuBusy::FloatMemRead             5709      2.07%     95.62% # attempts to use FU when none available (Count)
system.cpu0.statFuBusy::FloatMemWrite           12082      4.38%    100.00% # attempts to use FU when none available (Count)
system.cpu0.statFuBusy::IprAccess                   0      0.00%    100.00% # attempts to use FU when none available (Count)
system.cpu0.statFuBusy::InstPrefetch                0      0.00%    100.00% # attempts to use FU when none available (Count)
system.cpu0.statIssuedInstType_0::No_OpClass       143053      0.21%      0.21% # Number of instructions issued per FU type, per thread (Count)
system.cpu0.statIssuedInstType_0::IntAlu     40386711     60.05%     60.26% # Number of instructions issued per FU type, per thread (Count)
system.cpu0.statIssuedInstType_0::IntMult       132106      0.20%     60.45% # Number of instructions issued per FU type, per thread (Count)
system.cpu0.statIssuedInstType_0::IntDiv        14705      0.02%     60.48% # Number of instructions issued per FU type, per thread (Count)
system.cpu0.statIssuedInstType_0::FloatAdd      3911871      5.82%     66.29% # Number of instructions issued per FU type, per thread (Count)
system.cpu0.statIssuedInstType_0::FloatCmp            0      0.00%     66.29% # Number of instructions issued per FU type, per thread (Count)
system.cpu0.statIssuedInstType_0::FloatCvt            0      0.00%     66.29% # Number of instructions issued per FU type, per thread (Count)
system.cpu0.statIssuedInstType_0::FloatMult            0      0.00%     66.29% # Number of instructions issued per FU type, per thread (Count)
system.cpu0.statIssuedInstType_0::FloatMultAcc            0      0.00%     66.29% # Number of instructions issued per FU type, per thread (Count)
system.cpu0.statIssuedInstType_0::FloatDiv            0      0.00%     66.29% # Number of instructions issued per FU type, per thread (Count)
system.cpu0.statIssuedInstType_0::FloatMisc            0      0.00%     66.29% # Number of instructions issued per FU type, per thread (Count)
system.cpu0.statIssuedInstType_0::FloatSqrt            0      0.00%     66.29% # Number of instructions issued per FU type, per thread (Count)
system.cpu0.statIssuedInstType_0::SimdAdd          378      0.00%     66.29% # Number of instructions issued per FU type, per thread (Count)
system.cpu0.statIssuedInstType_0::SimdAddAcc            0      0.00%     66.29% # Number of instructions issued per FU type, per thread (Count)
system.cpu0.statIssuedInstType_0::SimdAlu      1789789      2.66%     68.95% # Number of instructions issued per FU type, per thread (Count)
system.cpu0.statIssuedInstType_0::SimdCmp           14      0.00%     68.95% # Number of instructions issued per FU type, per thread (Count)
system.cpu0.statIssuedInstType_0::SimdCvt          655      0.00%     68.96% # Number of instructions issued per FU type, per thread (Count)
system.cpu0.statIssuedInstType_0::SimdMisc       347940      0.52%     69.47% # Number of instructions issued per FU type, per thread (Count)
system.cpu0.statIssuedInstType_0::SimdMult            0      0.00%     69.47% # Number of instructions issued per FU type, per thread (Count)
system.cpu0.statIssuedInstType_0::SimdMultAcc            0      0.00%     69.47% # Number of instructions issued per FU type, per thread (Count)
system.cpu0.statIssuedInstType_0::SimdShift          186      0.00%     69.47% # Number of instructions issued per FU type, per thread (Count)
system.cpu0.statIssuedInstType_0::SimdShiftAcc            0      0.00%     69.47% # Number of instructions issued per FU type, per thread (Count)
system.cpu0.statIssuedInstType_0::SimdDiv            0      0.00%     69.47% # Number of instructions issued per FU type, per thread (Count)
system.cpu0.statIssuedInstType_0::SimdSqrt            0      0.00%     69.47% # Number of instructions issued per FU type, per thread (Count)
system.cpu0.statIssuedInstType_0::SimdFloatAdd      4083809      6.07%     75.54% # Number of instructions issued per FU type, per thread (Count)
system.cpu0.statIssuedInstType_0::SimdFloatAlu            0      0.00%     75.54% # Number of instructions issued per FU type, per thread (Count)
system.cpu0.statIssuedInstType_0::SimdFloatCmp            0      0.00%     75.54% # Number of instructions issued per FU type, per thread (Count)
system.cpu0.statIssuedInstType_0::SimdFloatCvt       426850      0.63%     76.18% # Number of instructions issued per FU type, per thread (Count)
system.cpu0.statIssuedInstType_0::SimdFloatDiv        66059      0.10%     76.28% # Number of instructions issued per FU type, per thread (Count)
system.cpu0.statIssuedInstType_0::SimdFloatMisc            0      0.00%     76.28% # Number of instructions issued per FU type, per thread (Count)
system.cpu0.statIssuedInstType_0::SimdFloatMult      3226170      4.80%     81.07% # Number of instructions issued per FU type, per thread (Count)
system.cpu0.statIssuedInstType_0::SimdFloatMultAcc            0      0.00%     81.07% # Number of instructions issued per FU type, per thread (Count)
system.cpu0.statIssuedInstType_0::SimdFloatSqrt            0      0.00%     81.07% # Number of instructions issued per FU type, per thread (Count)
system.cpu0.statIssuedInstType_0::SimdReduceAdd            0      0.00%     81.07% # Number of instructions issued per FU type, per thread (Count)
system.cpu0.statIssuedInstType_0::SimdReduceAlu            0      0.00%     81.07% # Number of instructions issued per FU type, per thread (Count)
system.cpu0.statIssuedInstType_0::SimdReduceCmp            0      0.00%     81.07% # Number of instructions issued per FU type, per thread (Count)
system.cpu0.statIssuedInstType_0::SimdFloatReduceAdd            0      0.00%     81.07% # Number of instructions issued per FU type, per thread (Count)
system.cpu0.statIssuedInstType_0::SimdFloatReduceCmp            0      0.00%     81.07% # Number of instructions issued per FU type, per thread (Count)
system.cpu0.statIssuedInstType_0::SimdAes            0      0.00%     81.07% # Number of instructions issued per FU type, per thread (Count)
system.cpu0.statIssuedInstType_0::SimdAesMix            0      0.00%     81.07% # Number of instructions issued per FU type, per thread (Count)
system.cpu0.statIssuedInstType_0::SimdSha1Hash            0      0.00%     81.07% # Number of instructions issued per FU type, per thread (Count)
system.cpu0.statIssuedInstType_0::SimdSha1Hash2            0      0.00%     81.07% # Number of instructions issued per FU type, per thread (Count)
system.cpu0.statIssuedInstType_0::SimdSha256Hash            0      0.00%     81.07% # Number of instructions issued per FU type, per thread (Count)
system.cpu0.statIssuedInstType_0::SimdSha256Hash2            0      0.00%     81.07% # Number of instructions issued per FU type, per thread (Count)
system.cpu0.statIssuedInstType_0::SimdShaSigma2            0      0.00%     81.07% # Number of instructions issued per FU type, per thread (Count)
system.cpu0.statIssuedInstType_0::SimdShaSigma3            0      0.00%     81.07% # Number of instructions issued per FU type, per thread (Count)
system.cpu0.statIssuedInstType_0::SimdPredAlu            0      0.00%     81.07% # Number of instructions issued per FU type, per thread (Count)
system.cpu0.statIssuedInstType_0::MemRead      3062792      4.55%     85.63% # Number of instructions issued per FU type, per thread (Count)
system.cpu0.statIssuedInstType_0::MemWrite      1989900      2.96%     88.59% # Number of instructions issued per FU type, per thread (Count)
system.cpu0.statIssuedInstType_0::FloatMemRead      5070804      7.54%     96.13% # Number of instructions issued per FU type, per thread (Count)
system.cpu0.statIssuedInstType_0::FloatMemWrite      2606093      3.87%    100.00% # Number of instructions issued per FU type, per thread (Count)
system.cpu0.statIssuedInstType_0::IprAccess            0      0.00%    100.00% # Number of instructions issued per FU type, per thread (Count)
system.cpu0.statIssuedInstType_0::InstPrefetch            0      0.00%    100.00% # Number of instructions issued per FU type, per thread (Count)
system.cpu0.statIssuedInstType_0::total      67259885                       # Number of instructions issued per FU type, per thread (Count)
system.cpu0.issueRate                        2.616862                       # Inst issue rate ((Count/Cycle))
system.cpu0.fuBusy                             275875                       # FU busy when requested (Count)
system.cpu0.fuBusyRate                       0.004102                       # FU busy rate (busy events/executed inst) ((Count/Count))
system.cpu0.intInstQueueReads               104908587                       # Number of integer instruction queue reads (Count)
system.cpu0.intInstQueueWrites               40312587                       # Number of integer instruction queue writes (Count)
system.cpu0.intInstQueueWakeupAccesses       39523455                       # Number of integer instruction queue wakeup accesses (Count)
system.cpu0.fpInstQueueReads                 55414581                       # Number of floating instruction queue reads (Count)
system.cpu0.fpInstQueueWrites                28093469                       # Number of floating instruction queue writes (Count)
system.cpu0.fpInstQueueWakeupAccesses        27616748                       # Number of floating instruction queue wakeup accesses (Count)
system.cpu0.vecInstQueueReads                       0                       # Number of vector instruction queue reads (Count)
system.cpu0.vecInstQueueWrites                      0                       # Number of vector instruction queue writes (Count)
system.cpu0.vecInstQueueWakeupAccesses              0                       # Number of vector instruction queue wakeup accesses (Count)
system.cpu0.intAluAccesses                   39654914                       # Number of integer alu accesses (Count)
system.cpu0.fpAluAccesses                    27737793                       # Number of floating point alu accesses (Count)
system.cpu0.vecAluAccesses                          0                       # Number of vector alu accesses (Count)
system.cpu0.numInsts                         67170706                       # Number of executed instructions (Count)
system.cpu0.numLoadInsts                      8123461                       # Number of load instructions executed (Count)
system.cpu0.numSquashedInsts                    89179                       # Number of squashed instructions skipped in execute (Count)
system.cpu0.numSwp                                  0                       # Number of swp insts executed (Count)
system.cpu0.numNop                                  0                       # Number of nop insts executed (Count)
system.cpu0.numRefs                          12712345                       # Number of memory reference insts executed (Count)
system.cpu0.numBranches                       3890418                       # Number of branches executed (Count)
system.cpu0.numStoreInsts                     4588884                       # Number of stores executed (Count)
system.cpu0.numRate                          2.613392                       # Inst execution rate ((Count/Cycle))
system.cpu0.timesIdled                            965                       # Number of times that the entire CPU went into an idle state and unscheduled itself (Count)
system.cpu0.idleCycles                         179115                       # Total number of cycles that the CPU has spent unscheduled due to idling (Cycle)
system.cpu0.quiesceCycles                      173829                       # Total number of cycles that CPU has spent quiesced or waiting for an interrupt (Cycle)
system.cpu0.committedInsts                   39450394                       # Number of Instructions Simulated (Count)
system.cpu0.committedOps                     66501951                       # Number of Ops (including micro ops) Simulated (Count)
system.cpu0.cpi                              0.651514                       # CPI: Cycles Per Instruction ((Cycle/Count))
system.cpu0.totalCpi                         0.651514                       # CPI: Total CPI of All Threads ((Cycle/Count))
system.cpu0.ipc                              1.534885                       # IPC: Instructions Per Cycle ((Count/Cycle))
system.cpu0.totalIpc                         1.534885                       # IPC: Total IPC of All Threads ((Count/Cycle))
system.cpu0.intRegfileReads                  60179917                       # Number of integer regfile reads (Count)
system.cpu0.intRegfileWrites                 31592036                       # Number of integer regfile writes (Count)
system.cpu0.fpRegfileReads                   41791280                       # Number of floating regfile reads (Count)
system.cpu0.fpRegfileWrites                  24521105                       # Number of floating regfile writes (Count)
system.cpu0.ccRegfileReads                   19260415                       # number of cc regfile reads (Count)
system.cpu0.ccRegfileWrites                  19889213                       # number of cc regfile writes (Count)
system.cpu0.miscRegfileReads                 21963947                       # number of misc regfile reads (Count)
system.cpu0.MemDepUnit__0.insertedLoads       8156916                       # Number of loads inserted to the mem dependence unit. (Count)
system.cpu0.MemDepUnit__0.insertedStores      4619377                       # Number of stores inserted to the mem dependence unit. (Count)
system.cpu0.MemDepUnit__0.conflictingLoads       688403                       # Number of conflicting loads. (Count)
system.cpu0.MemDepUnit__0.conflictingStores       168013                       # Number of conflicting stores. (Count)
system.cpu0.MemDepUnit__1.insertedLoads             0                       # Number of loads inserted to the mem dependence unit. (Count)
system.cpu0.MemDepUnit__1.insertedStores            0                       # Number of stores inserted to the mem dependence unit. (Count)
system.cpu0.MemDepUnit__1.conflictingLoads            0                       # Number of conflicting loads. (Count)
system.cpu0.MemDepUnit__1.conflictingStores            0                       # Number of conflicting stores. (Count)
system.cpu0.MemDepUnit__2.insertedLoads             0                       # Number of loads inserted to the mem dependence unit. (Count)
system.cpu0.MemDepUnit__2.insertedStores            0                       # Number of stores inserted to the mem dependence unit. (Count)
system.cpu0.MemDepUnit__2.conflictingLoads            0                       # Number of conflicting loads. (Count)
system.cpu0.MemDepUnit__2.conflictingStores            0                       # Number of conflicting stores. (Count)
system.cpu0.MemDepUnit__3.insertedLoads             0                       # Number of loads inserted to the mem dependence unit. (Count)
system.cpu0.MemDepUnit__3.insertedStores            0                       # Number of stores inserted to the mem dependence unit. (Count)
system.cpu0.MemDepUnit__3.conflictingLoads            0                       # Number of conflicting loads. (Count)
system.cpu0.MemDepUnit__3.conflictingStores            0                       # Number of conflicting stores. (Count)
system.cpu0.branchPred.lookups                3936582                       # Number of BP lookups (Count)
system.cpu0.branchPred.condPredicted          2825466                       # Number of conditional branches predicted (Count)
system.cpu0.branchPred.condIncorrect            27291                       # Number of conditional branches incorrect (Count)
system.cpu0.branchPred.BTBLookups             2300570                       # Number of BTB lookups (Count)
system.cpu0.branchPred.BTBHits                2298404                       # Number of BTB hits (Count)
system.cpu0.branchPred.BTBHitRatio           0.999058                       # BTB Hit Ratio (Ratio)
system.cpu0.branchPred.RASUsed                 464440                       # Number of times the RAS was used to get a target. (Count)
system.cpu0.branchPred.RASIncorrect                 2                       # Number of incorrect RAS predictions. (Count)
system.cpu0.branchPred.indirectLookups           1506                       # Number of indirect predictor lookups. (Count)
system.cpu0.branchPred.indirectHits               380                       # Number of indirect target hits. (Count)
system.cpu0.branchPred.indirectMisses            1126                       # Number of indirect misses. (Count)
system.cpu0.branchPred.indirectMispredicted          203                       # Number of mispredicted indirect branches. (Count)
system.cpu0.commit.commitSquashedInsts         922455                       # The number of squashed insts skipped by commit (Count)
system.cpu0.commit.commitNonSpecStalls            714                       # The number of times commit has been forced to stall to communicate backwards (Count)
system.cpu0.commit.branchMispredicts            26523                       # The number of times a branch was mispredicted (Count)
system.cpu0.commit.numCommittedDist::samples     25393795                       # Number of insts commited each cycle (Count)
system.cpu0.commit.numCommittedDist::mean     2.618827                       # Number of insts commited each cycle (Count)
system.cpu0.commit.numCommittedDist::stdev     3.064146                       # Number of insts commited each cycle (Count)
system.cpu0.commit.numCommittedDist::underflows            0      0.00%      0.00% # Number of insts commited each cycle (Count)
system.cpu0.commit.numCommittedDist::0       10600290     41.74%     41.74% # Number of insts commited each cycle (Count)
system.cpu0.commit.numCommittedDist::1        3142567     12.38%     54.12% # Number of insts commited each cycle (Count)
system.cpu0.commit.numCommittedDist::2        1549225      6.10%     60.22% # Number of insts commited each cycle (Count)
system.cpu0.commit.numCommittedDist::3        2092533      8.24%     68.46% # Number of insts commited each cycle (Count)
system.cpu0.commit.numCommittedDist::4        1265325      4.98%     73.44% # Number of insts commited each cycle (Count)
system.cpu0.commit.numCommittedDist::5        1070917      4.22%     77.66% # Number of insts commited each cycle (Count)
system.cpu0.commit.numCommittedDist::6         780796      3.07%     80.73% # Number of insts commited each cycle (Count)
system.cpu0.commit.numCommittedDist::7         254462      1.00%     81.74% # Number of insts commited each cycle (Count)
system.cpu0.commit.numCommittedDist::8        4637680     18.26%    100.00% # Number of insts commited each cycle (Count)
system.cpu0.commit.numCommittedDist::overflows            0      0.00%    100.00% # Number of insts commited each cycle (Count)
system.cpu0.commit.numCommittedDist::min_value            0                       # Number of insts commited each cycle (Count)
system.cpu0.commit.numCommittedDist::max_value            8                       # Number of insts commited each cycle (Count)
system.cpu0.commit.numCommittedDist::total     25393795                       # Number of insts commited each cycle (Count)
system.cpu0.commit.instsCommitted            39450394                       # Number of instructions committed (Count)
system.cpu0.commit.opsCommitted              66501951                       # Number of ops (including micro ops) committed (Count)
system.cpu0.commit.memRefs                   12604506                       # Number of memory references committed (Count)
system.cpu0.commit.loads                      8043541                       # Number of loads committed (Count)
system.cpu0.commit.amos                             0                       # Number of atomic instructions committed (Count)
system.cpu0.commit.membars                        476                       # Number of memory barriers committed (Count)
system.cpu0.commit.branches                   3846787                       # Number of branches committed (Count)
system.cpu0.commit.vectorInstructions               0                       # Number of committed Vector instructions. (Count)
system.cpu0.commit.floating                  27414057                       # Number of committed floating point instructions. (Count)
system.cpu0.commit.integer                   46880336                       # Number of committed integer instructions. (Count)
system.cpu0.commit.functionCalls               460564                       # Number of function calls committed. (Count)
system.cpu0.commit.committedInstType_0::No_OpClass       135524      0.20%      0.20% # Class of committed instruction (Count)
system.cpu0.commit.committedInstType_0::IntAlu     39889457     59.98%     60.19% # Class of committed instruction (Count)
system.cpu0.commit.committedInstType_0::IntMult       131837      0.20%     60.38% # Class of committed instruction (Count)
system.cpu0.commit.committedInstType_0::IntDiv        14686      0.02%     60.41% # Class of committed instruction (Count)
system.cpu0.commit.committedInstType_0::FloatAdd      3850552      5.79%     66.20% # Class of committed instruction (Count)
system.cpu0.commit.committedInstType_0::FloatCmp            0      0.00%     66.20% # Class of committed instruction (Count)
system.cpu0.commit.committedInstType_0::FloatCvt            0      0.00%     66.20% # Class of committed instruction (Count)
system.cpu0.commit.committedInstType_0::FloatMult            0      0.00%     66.20% # Class of committed instruction (Count)
system.cpu0.commit.committedInstType_0::FloatMultAcc            0      0.00%     66.20% # Class of committed instruction (Count)
system.cpu0.commit.committedInstType_0::FloatDiv            0      0.00%     66.20% # Class of committed instruction (Count)
system.cpu0.commit.committedInstType_0::FloatMisc            0      0.00%     66.20% # Class of committed instruction (Count)
system.cpu0.commit.committedInstType_0::FloatSqrt            0      0.00%     66.20% # Class of committed instruction (Count)
system.cpu0.commit.committedInstType_0::SimdAdd          374      0.00%     66.20% # Class of committed instruction (Count)
system.cpu0.commit.committedInstType_0::SimdAddAcc            0      0.00%     66.20% # Class of committed instruction (Count)
system.cpu0.commit.committedInstType_0::SimdAlu      1749406      2.63%     68.83% # Class of committed instruction (Count)
system.cpu0.commit.committedInstType_0::SimdCmp           14      0.00%     68.83% # Class of committed instruction (Count)
system.cpu0.commit.committedInstType_0::SimdCvt          602      0.00%     68.83% # Class of committed instruction (Count)
system.cpu0.commit.committedInstType_0::SimdMisc       343844      0.52%     69.35% # Class of committed instruction (Count)
system.cpu0.commit.committedInstType_0::SimdMult            0      0.00%     69.35% # Class of committed instruction (Count)
system.cpu0.commit.committedInstType_0::SimdMultAcc            0      0.00%     69.35% # Class of committed instruction (Count)
system.cpu0.commit.committedInstType_0::SimdShift          186      0.00%     69.35% # Class of committed instruction (Count)
system.cpu0.commit.committedInstType_0::SimdShiftAcc            0      0.00%     69.35% # Class of committed instruction (Count)
system.cpu0.commit.committedInstType_0::SimdDiv            0      0.00%     69.35% # Class of committed instruction (Count)
system.cpu0.commit.committedInstType_0::SimdSqrt            0      0.00%     69.35% # Class of committed instruction (Count)
system.cpu0.commit.committedInstType_0::SimdFloatAdd      4074534      6.13%     75.47% # Class of committed instruction (Count)
system.cpu0.commit.committedInstType_0::SimdFloatAlu            0      0.00%     75.47% # Class of committed instruction (Count)
system.cpu0.commit.committedInstType_0::SimdFloatCmp            0      0.00%     75.47% # Class of committed instruction (Count)
system.cpu0.commit.committedInstType_0::SimdFloatCvt       421829      0.63%     76.11% # Class of committed instruction (Count)
system.cpu0.commit.committedInstType_0::SimdFloatDiv        65794      0.10%     76.21% # Class of committed instruction (Count)
system.cpu0.commit.committedInstType_0::SimdFloatMisc            0      0.00%     76.21% # Class of committed instruction (Count)
system.cpu0.commit.committedInstType_0::SimdFloatMult      3218806      4.84%     81.05% # Class of committed instruction (Count)
system.cpu0.commit.committedInstType_0::SimdFloatMultAcc            0      0.00%     81.05% # Class of committed instruction (Count)
system.cpu0.commit.committedInstType_0::SimdFloatSqrt            0      0.00%     81.05% # Class of committed instruction (Count)
system.cpu0.commit.committedInstType_0::SimdReduceAdd            0      0.00%     81.05% # Class of committed instruction (Count)
system.cpu0.commit.committedInstType_0::SimdReduceAlu            0      0.00%     81.05% # Class of committed instruction (Count)
system.cpu0.commit.committedInstType_0::SimdReduceCmp            0      0.00%     81.05% # Class of committed instruction (Count)
system.cpu0.commit.committedInstType_0::SimdFloatReduceAdd            0      0.00%     81.05% # Class of committed instruction (Count)
system.cpu0.commit.committedInstType_0::SimdFloatReduceCmp            0      0.00%     81.05% # Class of committed instruction (Count)
system.cpu0.commit.committedInstType_0::SimdAes            0      0.00%     81.05% # Class of committed instruction (Count)
system.cpu0.commit.committedInstType_0::SimdAesMix            0      0.00%     81.05% # Class of committed instruction (Count)
system.cpu0.commit.committedInstType_0::SimdSha1Hash            0      0.00%     81.05% # Class of committed instruction (Count)
system.cpu0.commit.committedInstType_0::SimdSha1Hash2            0      0.00%     81.05% # Class of committed instruction (Count)
system.cpu0.commit.committedInstType_0::SimdSha256Hash            0      0.00%     81.05% # Class of committed instruction (Count)
system.cpu0.commit.committedInstType_0::SimdSha256Hash2            0      0.00%     81.05% # Class of committed instruction (Count)
system.cpu0.commit.committedInstType_0::SimdShaSigma2            0      0.00%     81.05% # Class of committed instruction (Count)
system.cpu0.commit.committedInstType_0::SimdShaSigma3            0      0.00%     81.05% # Class of committed instruction (Count)
system.cpu0.commit.committedInstType_0::SimdPredAlu            0      0.00%     81.05% # Class of committed instruction (Count)
system.cpu0.commit.committedInstType_0::MemRead      3038482      4.57%     85.62% # Class of committed instruction (Count)
system.cpu0.commit.committedInstType_0::MemWrite      1978548      2.98%     88.59% # Class of committed instruction (Count)
system.cpu0.commit.committedInstType_0::FloatMemRead      5005059      7.53%     96.12% # Class of committed instruction (Count)
system.cpu0.commit.committedInstType_0::FloatMemWrite      2582417      3.88%    100.00% # Class of committed instruction (Count)
system.cpu0.commit.committedInstType_0::IprAccess            0      0.00%    100.00% # Class of committed instruction (Count)
system.cpu0.commit.committedInstType_0::InstPrefetch            0      0.00%    100.00% # Class of committed instruction (Count)
system.cpu0.commit.committedInstType_0::total     66501951                       # Class of committed instruction (Count)
system.cpu0.commit.commitEligibleSamples      4637680                       # number cycles where commit BW limit reached (Cycle)
system.cpu0.dcache.demandHits::cpu0.data      9986760                       # number of demand (read+write) hits (Count)
system.cpu0.dcache.demandHits::total          9986760                       # number of demand (read+write) hits (Count)
system.cpu0.dcache.overallHits::cpu0.data      9986760                       # number of overall hits (Count)
system.cpu0.dcache.overallHits::total         9986760                       # number of overall hits (Count)
system.cpu0.dcache.demandMisses::cpu0.data       280194                       # number of demand (read+write) misses (Count)
system.cpu0.dcache.demandMisses::total         280194                       # number of demand (read+write) misses (Count)
system.cpu0.dcache.overallMisses::cpu0.data       280194                       # number of overall misses (Count)
system.cpu0.dcache.overallMisses::total        280194                       # number of overall misses (Count)
system.cpu0.dcache.demandMissLatency::cpu0.data   6567762661                       # number of demand (read+write) miss ticks (Tick)
system.cpu0.dcache.demandMissLatency::total   6567762661                       # number of demand (read+write) miss ticks (Tick)
system.cpu0.dcache.overallMissLatency::cpu0.data   6567762661                       # number of overall miss ticks (Tick)
system.cpu0.dcache.overallMissLatency::total   6567762661                       # number of overall miss ticks (Tick)
system.cpu0.dcache.demandAccesses::cpu0.data     10266954                       # number of demand (read+write) accesses (Count)
system.cpu0.dcache.demandAccesses::total     10266954                       # number of demand (read+write) accesses (Count)
system.cpu0.dcache.overallAccesses::cpu0.data     10266954                       # number of overall (read+write) accesses (Count)
system.cpu0.dcache.overallAccesses::total     10266954                       # number of overall (read+write) accesses (Count)
system.cpu0.dcache.demandMissRate::cpu0.data     0.027291                       # miss rate for demand accesses (Ratio)
system.cpu0.dcache.demandMissRate::total     0.027291                       # miss rate for demand accesses (Ratio)
system.cpu0.dcache.overallMissRate::cpu0.data     0.027291                       # miss rate for overall accesses (Ratio)
system.cpu0.dcache.overallMissRate::total     0.027291                       # miss rate for overall accesses (Ratio)
system.cpu0.dcache.demandAvgMissLatency::cpu0.data 23440.054609                       # average overall miss latency in ticks ((Tick/Count))
system.cpu0.dcache.demandAvgMissLatency::total 23440.054609                       # average overall miss latency in ticks ((Tick/Count))
system.cpu0.dcache.overallAvgMissLatency::cpu0.data 23440.054609                       # average overall miss latency ((Tick/Count))
system.cpu0.dcache.overallAvgMissLatency::total 23440.054609                       # average overall miss latency ((Tick/Count))
system.cpu0.dcache.blockedCycles::no_mshrs        29569                       # number of cycles access was blocked (Cycle)
system.cpu0.dcache.blockedCycles::no_targets           10                       # number of cycles access was blocked (Cycle)
system.cpu0.dcache.blockedCauses::no_mshrs         3309                       # number of times access was blocked (Count)
system.cpu0.dcache.blockedCauses::no_targets            1                       # number of times access was blocked (Count)
system.cpu0.dcache.avgBlocked::no_mshrs      8.935932                       # average number of cycles each access was blocked ((Cycle/Count))
system.cpu0.dcache.avgBlocked::no_targets           10                       # average number of cycles each access was blocked ((Cycle/Count))
system.cpu0.dcache.writebacks::writebacks        92583                       # number of writebacks (Count)
system.cpu0.dcache.writebacks::total            92583                       # number of writebacks (Count)
system.cpu0.dcache.demandMshrHits::cpu0.data       170722                       # number of demand (read+write) MSHR hits (Count)
system.cpu0.dcache.demandMshrHits::total       170722                       # number of demand (read+write) MSHR hits (Count)
system.cpu0.dcache.overallMshrHits::cpu0.data       170722                       # number of overall MSHR hits (Count)
system.cpu0.dcache.overallMshrHits::total       170722                       # number of overall MSHR hits (Count)
system.cpu0.dcache.demandMshrMisses::cpu0.data       109472                       # number of demand (read+write) MSHR misses (Count)
system.cpu0.dcache.demandMshrMisses::total       109472                       # number of demand (read+write) MSHR misses (Count)
system.cpu0.dcache.overallMshrMisses::cpu0.data       109472                       # number of overall MSHR misses (Count)
system.cpu0.dcache.overallMshrMisses::total       109472                       # number of overall MSHR misses (Count)
system.cpu0.dcache.demandMshrMissLatency::cpu0.data   4634418275                       # number of demand (read+write) MSHR miss ticks (Tick)
system.cpu0.dcache.demandMshrMissLatency::total   4634418275                       # number of demand (read+write) MSHR miss ticks (Tick)
system.cpu0.dcache.overallMshrMissLatency::cpu0.data   4634418275                       # number of overall MSHR miss ticks (Tick)
system.cpu0.dcache.overallMshrMissLatency::total   4634418275                       # number of overall MSHR miss ticks (Tick)
system.cpu0.dcache.demandMshrMissRate::cpu0.data     0.010663                       # mshr miss ratio for demand accesses (Ratio)
system.cpu0.dcache.demandMshrMissRate::total     0.010663                       # mshr miss ratio for demand accesses (Ratio)
system.cpu0.dcache.overallMshrMissRate::cpu0.data     0.010663                       # mshr miss ratio for overall accesses (Ratio)
system.cpu0.dcache.overallMshrMissRate::total     0.010663                       # mshr miss ratio for overall accesses (Ratio)
system.cpu0.dcache.demandAvgMshrMissLatency::cpu0.data 42334.279770                       # average overall mshr miss latency ((Tick/Count))
system.cpu0.dcache.demandAvgMshrMissLatency::total 42334.279770                       # average overall mshr miss latency ((Tick/Count))
system.cpu0.dcache.overallAvgMshrMissLatency::cpu0.data 42334.279770                       # average overall mshr miss latency ((Tick/Count))
system.cpu0.dcache.overallAvgMshrMissLatency::total 42334.279770                       # average overall mshr miss latency ((Tick/Count))
system.cpu0.dcache.replacements                108886                       # number of replacements (Count)
system.cpu0.dcache.LockedRMWReadReq.hits::cpu0.data          203                       # number of LockedRMWReadReq hits (Count)
system.cpu0.dcache.LockedRMWReadReq.hits::total          203                       # number of LockedRMWReadReq hits (Count)
system.cpu0.dcache.LockedRMWReadReq.misses::cpu0.data           35                       # number of LockedRMWReadReq misses (Count)
system.cpu0.dcache.LockedRMWReadReq.misses::total           35                       # number of LockedRMWReadReq misses (Count)
system.cpu0.dcache.LockedRMWReadReq.missLatency::cpu0.data       818847                       # number of LockedRMWReadReq miss ticks (Tick)
system.cpu0.dcache.LockedRMWReadReq.missLatency::total       818847                       # number of LockedRMWReadReq miss ticks (Tick)
system.cpu0.dcache.LockedRMWReadReq.accesses::cpu0.data          238                       # number of LockedRMWReadReq accesses(hits+misses) (Count)
system.cpu0.dcache.LockedRMWReadReq.accesses::total          238                       # number of LockedRMWReadReq accesses(hits+misses) (Count)
system.cpu0.dcache.LockedRMWReadReq.missRate::cpu0.data     0.147059                       # miss rate for LockedRMWReadReq accesses (Ratio)
system.cpu0.dcache.LockedRMWReadReq.missRate::total     0.147059                       # miss rate for LockedRMWReadReq accesses (Ratio)
system.cpu0.dcache.LockedRMWReadReq.avgMissLatency::cpu0.data 23395.628571                       # average LockedRMWReadReq miss latency ((Tick/Count))
system.cpu0.dcache.LockedRMWReadReq.avgMissLatency::total 23395.628571                       # average LockedRMWReadReq miss latency ((Tick/Count))
system.cpu0.dcache.LockedRMWReadReq.mshrMisses::cpu0.data           35                       # number of LockedRMWReadReq MSHR misses (Count)
system.cpu0.dcache.LockedRMWReadReq.mshrMisses::total           35                       # number of LockedRMWReadReq MSHR misses (Count)
system.cpu0.dcache.LockedRMWReadReq.mshrMissLatency::cpu0.data      2340324                       # number of LockedRMWReadReq MSHR miss ticks (Tick)
system.cpu0.dcache.LockedRMWReadReq.mshrMissLatency::total      2340324                       # number of LockedRMWReadReq MSHR miss ticks (Tick)
system.cpu0.dcache.LockedRMWReadReq.mshrMissRate::cpu0.data     0.147059                       # mshr miss rate for LockedRMWReadReq accesses (Ratio)
system.cpu0.dcache.LockedRMWReadReq.mshrMissRate::total     0.147059                       # mshr miss rate for LockedRMWReadReq accesses (Ratio)
system.cpu0.dcache.LockedRMWReadReq.avgMshrMissLatency::cpu0.data 66866.400000                       # average LockedRMWReadReq mshr miss latency ((Tick/Count))
system.cpu0.dcache.LockedRMWReadReq.avgMshrMissLatency::total 66866.400000                       # average LockedRMWReadReq mshr miss latency ((Tick/Count))
system.cpu0.dcache.LockedRMWWriteReq.hits::cpu0.data          238                       # number of LockedRMWWriteReq hits (Count)
system.cpu0.dcache.LockedRMWWriteReq.hits::total          238                       # number of LockedRMWWriteReq hits (Count)
system.cpu0.dcache.LockedRMWWriteReq.accesses::cpu0.data          238                       # number of LockedRMWWriteReq accesses(hits+misses) (Count)
system.cpu0.dcache.LockedRMWWriteReq.accesses::total          238                       # number of LockedRMWWriteReq accesses(hits+misses) (Count)
system.cpu0.dcache.ReadReq.hits::cpu0.data      5484505                       # number of ReadReq hits (Count)
system.cpu0.dcache.ReadReq.hits::total        5484505                       # number of ReadReq hits (Count)
system.cpu0.dcache.ReadReq.misses::cpu0.data       221699                       # number of ReadReq misses (Count)
system.cpu0.dcache.ReadReq.misses::total       221699                       # number of ReadReq misses (Count)
system.cpu0.dcache.ReadReq.missLatency::cpu0.data   2542898889                       # number of ReadReq miss ticks (Tick)
system.cpu0.dcache.ReadReq.missLatency::total   2542898889                       # number of ReadReq miss ticks (Tick)
system.cpu0.dcache.ReadReq.accesses::cpu0.data      5706204                       # number of ReadReq accesses(hits+misses) (Count)
system.cpu0.dcache.ReadReq.accesses::total      5706204                       # number of ReadReq accesses(hits+misses) (Count)
system.cpu0.dcache.ReadReq.missRate::cpu0.data     0.038852                       # miss rate for ReadReq accesses (Ratio)
system.cpu0.dcache.ReadReq.missRate::total     0.038852                       # miss rate for ReadReq accesses (Ratio)
system.cpu0.dcache.ReadReq.avgMissLatency::cpu0.data 11470.051236                       # average ReadReq miss latency ((Tick/Count))
system.cpu0.dcache.ReadReq.avgMissLatency::total 11470.051236                       # average ReadReq miss latency ((Tick/Count))
system.cpu0.dcache.ReadReq.mshrHits::cpu0.data       170716                       # number of ReadReq MSHR hits (Count)
system.cpu0.dcache.ReadReq.mshrHits::total       170716                       # number of ReadReq MSHR hits (Count)
system.cpu0.dcache.ReadReq.mshrMisses::cpu0.data        50983                       # number of ReadReq MSHR misses (Count)
system.cpu0.dcache.ReadReq.mshrMisses::total        50983                       # number of ReadReq MSHR misses (Count)
system.cpu0.dcache.ReadReq.mshrMissLatency::cpu0.data    648646038                       # number of ReadReq MSHR miss ticks (Tick)
system.cpu0.dcache.ReadReq.mshrMissLatency::total    648646038                       # number of ReadReq MSHR miss ticks (Tick)
system.cpu0.dcache.ReadReq.mshrMissRate::cpu0.data     0.008935                       # mshr miss rate for ReadReq accesses (Ratio)
system.cpu0.dcache.ReadReq.mshrMissRate::total     0.008935                       # mshr miss rate for ReadReq accesses (Ratio)
system.cpu0.dcache.ReadReq.avgMshrMissLatency::cpu0.data 12722.790695                       # average ReadReq mshr miss latency ((Tick/Count))
system.cpu0.dcache.ReadReq.avgMshrMissLatency::total 12722.790695                       # average ReadReq mshr miss latency ((Tick/Count))
system.cpu0.dcache.WriteReq.hits::cpu0.data      4502255                       # number of WriteReq hits (Count)
system.cpu0.dcache.WriteReq.hits::total       4502255                       # number of WriteReq hits (Count)
system.cpu0.dcache.WriteReq.misses::cpu0.data        58495                       # number of WriteReq misses (Count)
system.cpu0.dcache.WriteReq.misses::total        58495                       # number of WriteReq misses (Count)
system.cpu0.dcache.WriteReq.missLatency::cpu0.data   4024863772                       # number of WriteReq miss ticks (Tick)
system.cpu0.dcache.WriteReq.missLatency::total   4024863772                       # number of WriteReq miss ticks (Tick)
system.cpu0.dcache.WriteReq.accesses::cpu0.data      4560750                       # number of WriteReq accesses(hits+misses) (Count)
system.cpu0.dcache.WriteReq.accesses::total      4560750                       # number of WriteReq accesses(hits+misses) (Count)
system.cpu0.dcache.WriteReq.missRate::cpu0.data     0.012826                       # miss rate for WriteReq accesses (Ratio)
system.cpu0.dcache.WriteReq.missRate::total     0.012826                       # miss rate for WriteReq accesses (Ratio)
system.cpu0.dcache.WriteReq.avgMissLatency::cpu0.data 68806.971057                       # average WriteReq miss latency ((Tick/Count))
system.cpu0.dcache.WriteReq.avgMissLatency::total 68806.971057                       # average WriteReq miss latency ((Tick/Count))
system.cpu0.dcache.WriteReq.mshrHits::cpu0.data            6                       # number of WriteReq MSHR hits (Count)
system.cpu0.dcache.WriteReq.mshrHits::total            6                       # number of WriteReq MSHR hits (Count)
system.cpu0.dcache.WriteReq.mshrMisses::cpu0.data        58489                       # number of WriteReq MSHR misses (Count)
system.cpu0.dcache.WriteReq.mshrMisses::total        58489                       # number of WriteReq MSHR misses (Count)
system.cpu0.dcache.WriteReq.mshrMissLatency::cpu0.data   3985772237                       # number of WriteReq MSHR miss ticks (Tick)
system.cpu0.dcache.WriteReq.mshrMissLatency::total   3985772237                       # number of WriteReq MSHR miss ticks (Tick)
system.cpu0.dcache.WriteReq.mshrMissRate::cpu0.data     0.012824                       # mshr miss rate for WriteReq accesses (Ratio)
system.cpu0.dcache.WriteReq.mshrMissRate::total     0.012824                       # mshr miss rate for WriteReq accesses (Ratio)
system.cpu0.dcache.WriteReq.avgMshrMissLatency::cpu0.data 68145.672468                       # average WriteReq mshr miss latency ((Tick/Count))
system.cpu0.dcache.WriteReq.avgMshrMissLatency::total 68145.672468                       # average WriteReq mshr miss latency ((Tick/Count))
system.cpu0.dcache.power_state.pwrStateResidencyTicks::UNDEFINED   8616817224                       # Cumulative time (in ticks) in various power states (Tick)
system.cpu0.dcache.tags.tagsInUse          509.387139                       # Average ticks per tags in use ((Tick/Count))
system.cpu0.dcache.tags.totalRefs            10096721                       # Total number of references to valid blocks. (Count)
system.cpu0.dcache.tags.sampledRefs            109438                       # Sample count of references to valid blocks. (Count)
system.cpu0.dcache.tags.avgRefs             92.259736                       # Average number of references to valid blocks. ((Count/Count))
system.cpu0.dcache.tags.warmupTick             187146                       # The tick when the warmup percentage was hit. (Tick)
system.cpu0.dcache.tags.occupancies::cpu0.data   509.387139                       # Average occupied blocks per tick, per requestor ((Count/Tick))
system.cpu0.dcache.tags.avgOccs::cpu0.data     0.994897                       # Average percentage of cache occupancy ((Ratio/Tick))
system.cpu0.dcache.tags.avgOccs::total       0.994897                       # Average percentage of cache occupancy ((Ratio/Tick))
system.cpu0.dcache.tags.occupanciesTaskId::1024          512                       # Occupied blocks per task id (Count)
system.cpu0.dcache.tags.ageTaskId_1024::0           37                       # Occupied blocks per task id, per block age (Count)
system.cpu0.dcache.tags.ageTaskId_1024::1          475                       # Occupied blocks per task id, per block age (Count)
system.cpu0.dcache.tags.ratioOccsTaskId::1024            1                       # Ratio of occupied blocks and all blocks, per task id (Ratio)
system.cpu0.dcache.tags.tagAccesses          82248878                       # Number of tag accesses (Count)
system.cpu0.dcache.tags.dataAccesses         82248878                       # Number of data accesses (Count)
system.cpu0.dcache.tags.power_state.pwrStateResidencyTicks::UNDEFINED   8616817224                       # Cumulative time (in ticks) in various power states (Tick)
system.cpu0.decode.idleCycles                 4624862                       # Number of cycles decode is idle (Cycle)
system.cpu0.decode.blockedCycles             10449537                       # Number of cycles decode is blocked (Cycle)
system.cpu0.decode.runCycles                 10116327                       # Number of cycles decode is running (Cycle)
system.cpu0.decode.unblockCycles               305146                       # Number of cycles decode is unblocking (Cycle)
system.cpu0.decode.squashCycles                 27513                       # Number of cycles decode is squashing (Cycle)
system.cpu0.decode.branchResolved             2291461                       # Number of times decode resolved a branch (Count)
system.cpu0.decode.branchMispred                  946                       # Number of times decode detected a branch misprediction (Count)
system.cpu0.decode.decodedInsts              67857069                       # Number of instructions handled by decode (Count)
system.cpu0.decode.squashedInsts                 4504                       # Number of squashed instructions handled by decode (Count)
system.cpu0.dtb_walker_cache.blockedCycles::no_mshrs            0                       # number of cycles access was blocked (Cycle)
system.cpu0.dtb_walker_cache.blockedCycles::no_targets            0                       # number of cycles access was blocked (Cycle)
system.cpu0.dtb_walker_cache.blockedCauses::no_mshrs            0                       # number of times access was blocked (Count)
system.cpu0.dtb_walker_cache.blockedCauses::no_targets            0                       # number of times access was blocked (Count)
system.cpu0.dtb_walker_cache.avgBlocked::no_mshrs          nan                       # average number of cycles each access was blocked ((Cycle/Count))
system.cpu0.dtb_walker_cache.avgBlocked::no_targets          nan                       # average number of cycles each access was blocked ((Cycle/Count))
system.cpu0.dtb_walker_cache.replacements            0                       # number of replacements (Count)
system.cpu0.dtb_walker_cache.power_state.pwrStateResidencyTicks::UNDEFINED   8616817224                       # Cumulative time (in ticks) in various power states (Tick)
system.cpu0.dtb_walker_cache.tags.tagsInUse            0                       # Average ticks per tags in use ((Tick/Count))
system.cpu0.dtb_walker_cache.tags.totalRefs            0                       # Total number of references to valid blocks. (Count)
system.cpu0.dtb_walker_cache.tags.sampledRefs            0                       # Sample count of references to valid blocks. (Count)
system.cpu0.dtb_walker_cache.tags.avgRefs          nan                       # Average number of references to valid blocks. ((Count/Count))
system.cpu0.dtb_walker_cache.tags.warmupTick            0                       # The tick when the warmup percentage was hit. (Tick)
system.cpu0.dtb_walker_cache.tags.tagAccesses            0                       # Number of tag accesses (Count)
system.cpu0.dtb_walker_cache.tags.dataAccesses            0                       # Number of data accesses (Count)
system.cpu0.dtb_walker_cache.tags.power_state.pwrStateResidencyTicks::UNDEFINED   8616817224                       # Cumulative time (in ticks) in various power states (Tick)
system.cpu0.fetch.icacheStallCycles           4651092                       # Number of cycles fetch is stalled on an Icache miss (Cycle)
system.cpu0.fetch.insts                      40344380                       # Number of instructions fetch has processed (Count)
system.cpu0.fetch.branches                    3936582                       # Number of branches that fetch encountered (Count)
system.cpu0.fetch.predictedBranches           2763224                       # Number of branches that fetch has predicted taken (Count)
system.cpu0.fetch.cycles                     20842594                       # Number of cycles fetch has run and was not squashing or blocked (Cycle)
system.cpu0.fetch.squashCycles                  56876                       # Number of cycles fetch has spent squashing (Cycle)
system.cpu0.fetch.miscStallCycles                 207                       # Number of cycles fetch has spent waiting on interrupts, or bad addresses, or out of MSHRs (Cycle)
system.cpu0.fetch.pendingTrapStallCycles          995                       # Number of stall cycles due to pending traps (Cycle)
system.cpu0.fetch.icacheWaitRetryStallCycles           59                       # Number of stall cycles due to full MSHR (Cycle)
system.cpu0.fetch.cacheLines                  4586937                       # Number of cache lines fetched (Count)
system.cpu0.fetch.icacheSquashes                 8312                       # Number of outstanding Icache misses that were squashed (Count)
system.cpu0.fetch.nisnDist::samples          25523385                       # Number of instructions fetched each cycle (Total) (Count)
system.cpu0.fetch.nisnDist::mean             2.665773                       # Number of instructions fetched each cycle (Total) (Count)
system.cpu0.fetch.nisnDist::stdev            3.461660                       # Number of instructions fetched each cycle (Total) (Count)
system.cpu0.fetch.nisnDist::underflows              0      0.00%      0.00% # Number of instructions fetched each cycle (Total) (Count)
system.cpu0.fetch.nisnDist::0                14824308     58.08%     58.08% # Number of instructions fetched each cycle (Total) (Count)
system.cpu0.fetch.nisnDist::1                  528439      2.07%     60.15% # Number of instructions fetched each cycle (Total) (Count)
system.cpu0.fetch.nisnDist::2                  538179      2.11%     62.26% # Number of instructions fetched each cycle (Total) (Count)
system.cpu0.fetch.nisnDist::3                  768242      3.01%     65.27% # Number of instructions fetched each cycle (Total) (Count)
system.cpu0.fetch.nisnDist::4                  372147      1.46%     66.73% # Number of instructions fetched each cycle (Total) (Count)
system.cpu0.fetch.nisnDist::5                  950901      3.73%     70.45% # Number of instructions fetched each cycle (Total) (Count)
system.cpu0.fetch.nisnDist::6                  953152      3.73%     74.19% # Number of instructions fetched each cycle (Total) (Count)
system.cpu0.fetch.nisnDist::7                  536124      2.10%     76.29% # Number of instructions fetched each cycle (Total) (Count)
system.cpu0.fetch.nisnDist::8                 6051893     23.71%    100.00% # Number of instructions fetched each cycle (Total) (Count)
system.cpu0.fetch.nisnDist::overflows               0      0.00%    100.00% # Number of instructions fetched each cycle (Total) (Count)
system.cpu0.fetch.nisnDist::min_value               0                       # Number of instructions fetched each cycle (Total) (Count)
system.cpu0.fetch.nisnDist::max_value               8                       # Number of instructions fetched each cycle (Total) (Count)
system.cpu0.fetch.nisnDist::total            25523385                       # Number of instructions fetched each cycle (Total) (Count)
system.cpu0.fetch.branchRate                 0.153159                       # Number of branch fetches per cycle (Ratio)
system.cpu0.fetch.rate                       1.569668                       # Number of inst fetches per cycle ((Count/Cycle))
system.cpu0.icache.demandHits::cpu0.inst      4585168                       # number of demand (read+write) hits (Count)
system.cpu0.icache.demandHits::total          4585168                       # number of demand (read+write) hits (Count)
system.cpu0.icache.overallHits::cpu0.inst      4585168                       # number of overall hits (Count)
system.cpu0.icache.overallHits::total         4585168                       # number of overall hits (Count)
system.cpu0.icache.demandMisses::cpu0.inst         1768                       # number of demand (read+write) misses (Count)
system.cpu0.icache.demandMisses::total           1768                       # number of demand (read+write) misses (Count)
system.cpu0.icache.overallMisses::cpu0.inst         1768                       # number of overall misses (Count)
system.cpu0.icache.overallMisses::total          1768                       # number of overall misses (Count)
system.cpu0.icache.demandMissLatency::cpu0.inst    136244619                       # number of demand (read+write) miss ticks (Tick)
system.cpu0.icache.demandMissLatency::total    136244619                       # number of demand (read+write) miss ticks (Tick)
system.cpu0.icache.overallMissLatency::cpu0.inst    136244619                       # number of overall miss ticks (Tick)
system.cpu0.icache.overallMissLatency::total    136244619                       # number of overall miss ticks (Tick)
system.cpu0.icache.demandAccesses::cpu0.inst      4586936                       # number of demand (read+write) accesses (Count)
system.cpu0.icache.demandAccesses::total      4586936                       # number of demand (read+write) accesses (Count)
system.cpu0.icache.overallAccesses::cpu0.inst      4586936                       # number of overall (read+write) accesses (Count)
system.cpu0.icache.overallAccesses::total      4586936                       # number of overall (read+write) accesses (Count)
system.cpu0.icache.demandMissRate::cpu0.inst     0.000385                       # miss rate for demand accesses (Ratio)
system.cpu0.icache.demandMissRate::total     0.000385                       # miss rate for demand accesses (Ratio)
system.cpu0.icache.overallMissRate::cpu0.inst     0.000385                       # miss rate for overall accesses (Ratio)
system.cpu0.icache.overallMissRate::total     0.000385                       # miss rate for overall accesses (Ratio)
system.cpu0.icache.demandAvgMissLatency::cpu0.inst 77061.436086                       # average overall miss latency in ticks ((Tick/Count))
system.cpu0.icache.demandAvgMissLatency::total 77061.436086                       # average overall miss latency in ticks ((Tick/Count))
system.cpu0.icache.overallAvgMissLatency::cpu0.inst 77061.436086                       # average overall miss latency ((Tick/Count))
system.cpu0.icache.overallAvgMissLatency::total 77061.436086                       # average overall miss latency ((Tick/Count))
system.cpu0.icache.blockedCycles::no_mshrs         1347                       # number of cycles access was blocked (Cycle)
system.cpu0.icache.blockedCycles::no_targets            0                       # number of cycles access was blocked (Cycle)
system.cpu0.icache.blockedCauses::no_mshrs           13                       # number of times access was blocked (Count)
system.cpu0.icache.blockedCauses::no_targets            0                       # number of times access was blocked (Count)
system.cpu0.icache.avgBlocked::no_mshrs    103.615385                       # average number of cycles each access was blocked ((Cycle/Count))
system.cpu0.icache.avgBlocked::no_targets          nan                       # average number of cycles each access was blocked ((Cycle/Count))
system.cpu0.icache.writebacks::writebacks          905                       # number of writebacks (Count)
system.cpu0.icache.writebacks::total              905                       # number of writebacks (Count)
system.cpu0.icache.demandMshrHits::cpu0.inst          350                       # number of demand (read+write) MSHR hits (Count)
system.cpu0.icache.demandMshrHits::total          350                       # number of demand (read+write) MSHR hits (Count)
system.cpu0.icache.overallMshrHits::cpu0.inst          350                       # number of overall MSHR hits (Count)
system.cpu0.icache.overallMshrHits::total          350                       # number of overall MSHR hits (Count)
system.cpu0.icache.demandMshrMisses::cpu0.inst         1418                       # number of demand (read+write) MSHR misses (Count)
system.cpu0.icache.demandMshrMisses::total         1418                       # number of demand (read+write) MSHR misses (Count)
system.cpu0.icache.overallMshrMisses::cpu0.inst         1418                       # number of overall MSHR misses (Count)
system.cpu0.icache.overallMshrMisses::total         1418                       # number of overall MSHR misses (Count)
system.cpu0.icache.demandMshrMissLatency::cpu0.inst    112076478                       # number of demand (read+write) MSHR miss ticks (Tick)
system.cpu0.icache.demandMshrMissLatency::total    112076478                       # number of demand (read+write) MSHR miss ticks (Tick)
system.cpu0.icache.overallMshrMissLatency::cpu0.inst    112076478                       # number of overall MSHR miss ticks (Tick)
system.cpu0.icache.overallMshrMissLatency::total    112076478                       # number of overall MSHR miss ticks (Tick)
system.cpu0.icache.demandMshrMissRate::cpu0.inst     0.000309                       # mshr miss ratio for demand accesses (Ratio)
system.cpu0.icache.demandMshrMissRate::total     0.000309                       # mshr miss ratio for demand accesses (Ratio)
system.cpu0.icache.overallMshrMissRate::cpu0.inst     0.000309                       # mshr miss ratio for overall accesses (Ratio)
system.cpu0.icache.overallMshrMissRate::total     0.000309                       # mshr miss ratio for overall accesses (Ratio)
system.cpu0.icache.demandAvgMshrMissLatency::cpu0.inst 79038.418900                       # average overall mshr miss latency ((Tick/Count))
system.cpu0.icache.demandAvgMshrMissLatency::total 79038.418900                       # average overall mshr miss latency ((Tick/Count))
system.cpu0.icache.overallAvgMshrMissLatency::cpu0.inst 79038.418900                       # average overall mshr miss latency ((Tick/Count))
system.cpu0.icache.overallAvgMshrMissLatency::total 79038.418900                       # average overall mshr miss latency ((Tick/Count))
system.cpu0.icache.replacements                   905                       # number of replacements (Count)
system.cpu0.icache.ReadReq.hits::cpu0.inst      4585168                       # number of ReadReq hits (Count)
system.cpu0.icache.ReadReq.hits::total        4585168                       # number of ReadReq hits (Count)
system.cpu0.icache.ReadReq.misses::cpu0.inst         1768                       # number of ReadReq misses (Count)
system.cpu0.icache.ReadReq.misses::total         1768                       # number of ReadReq misses (Count)
system.cpu0.icache.ReadReq.missLatency::cpu0.inst    136244619                       # number of ReadReq miss ticks (Tick)
system.cpu0.icache.ReadReq.missLatency::total    136244619                       # number of ReadReq miss ticks (Tick)
system.cpu0.icache.ReadReq.accesses::cpu0.inst      4586936                       # number of ReadReq accesses(hits+misses) (Count)
system.cpu0.icache.ReadReq.accesses::total      4586936                       # number of ReadReq accesses(hits+misses) (Count)
system.cpu0.icache.ReadReq.missRate::cpu0.inst     0.000385                       # miss rate for ReadReq accesses (Ratio)
system.cpu0.icache.ReadReq.missRate::total     0.000385                       # miss rate for ReadReq accesses (Ratio)
system.cpu0.icache.ReadReq.avgMissLatency::cpu0.inst 77061.436086                       # average ReadReq miss latency ((Tick/Count))
system.cpu0.icache.ReadReq.avgMissLatency::total 77061.436086                       # average ReadReq miss latency ((Tick/Count))
system.cpu0.icache.ReadReq.mshrHits::cpu0.inst          350                       # number of ReadReq MSHR hits (Count)
system.cpu0.icache.ReadReq.mshrHits::total          350                       # number of ReadReq MSHR hits (Count)
system.cpu0.icache.ReadReq.mshrMisses::cpu0.inst         1418                       # number of ReadReq MSHR misses (Count)
system.cpu0.icache.ReadReq.mshrMisses::total         1418                       # number of ReadReq MSHR misses (Count)
system.cpu0.icache.ReadReq.mshrMissLatency::cpu0.inst    112076478                       # number of ReadReq MSHR miss ticks (Tick)
system.cpu0.icache.ReadReq.mshrMissLatency::total    112076478                       # number of ReadReq MSHR miss ticks (Tick)
system.cpu0.icache.ReadReq.mshrMissRate::cpu0.inst     0.000309                       # mshr miss rate for ReadReq accesses (Ratio)
system.cpu0.icache.ReadReq.mshrMissRate::total     0.000309                       # mshr miss rate for ReadReq accesses (Ratio)
system.cpu0.icache.ReadReq.avgMshrMissLatency::cpu0.inst 79038.418900                       # average ReadReq mshr miss latency ((Tick/Count))
system.cpu0.icache.ReadReq.avgMshrMissLatency::total 79038.418900                       # average ReadReq mshr miss latency ((Tick/Count))
system.cpu0.icache.power_state.pwrStateResidencyTicks::UNDEFINED   8616817224                       # Cumulative time (in ticks) in various power states (Tick)
system.cpu0.icache.tags.tagsInUse          508.899939                       # Average ticks per tags in use ((Tick/Count))
system.cpu0.icache.tags.totalRefs             4586585                       # Total number of references to valid blocks. (Count)
system.cpu0.icache.tags.sampledRefs              1417                       # Sample count of references to valid blocks. (Count)
system.cpu0.icache.tags.avgRefs           3236.827805                       # Average number of references to valid blocks. ((Count/Count))
system.cpu0.icache.tags.warmupTick              92241                       # The tick when the warmup percentage was hit. (Tick)
system.cpu0.icache.tags.occupancies::cpu0.inst   508.899939                       # Average occupied blocks per tick, per requestor ((Count/Tick))
system.cpu0.icache.tags.avgOccs::cpu0.inst     0.993945                       # Average percentage of cache occupancy ((Ratio/Tick))
system.cpu0.icache.tags.avgOccs::total       0.993945                       # Average percentage of cache occupancy ((Ratio/Tick))
system.cpu0.icache.tags.occupanciesTaskId::1024          512                       # Occupied blocks per task id (Count)
system.cpu0.icache.tags.ageTaskId_1024::0          116                       # Occupied blocks per task id, per block age (Count)
system.cpu0.icache.tags.ageTaskId_1024::1           53                       # Occupied blocks per task id, per block age (Count)
system.cpu0.icache.tags.ageTaskId_1024::2           13                       # Occupied blocks per task id, per block age (Count)
system.cpu0.icache.tags.ageTaskId_1024::3          330                       # Occupied blocks per task id, per block age (Count)
system.cpu0.icache.tags.ratioOccsTaskId::1024            1                       # Ratio of occupied blocks and all blocks, per task id (Ratio)
system.cpu0.icache.tags.tagAccesses          36696905                       # Number of tag accesses (Count)
system.cpu0.icache.tags.dataAccesses         36696905                       # Number of data accesses (Count)
system.cpu0.icache.tags.power_state.pwrStateResidencyTicks::UNDEFINED   8616817224                       # Cumulative time (in ticks) in various power states (Tick)
system.cpu0.iew.idleCycles                          0                       # Number of cycles IEW is idle (Cycle)
system.cpu0.iew.squashCycles                    27513                       # Number of cycles IEW is squashing (Cycle)
system.cpu0.iew.blockCycles                    198883                       # Number of cycles IEW is blocking (Cycle)
system.cpu0.iew.unblockCycles                   11902                       # Number of cycles IEW is unblocking (Cycle)
system.cpu0.iew.dispatchedInsts              67453863                       # Number of instructions dispatched to IQ (Count)
system.cpu0.iew.dispSquashedInsts                1502                       # Number of squashed instructions skipped by dispatch (Count)
system.cpu0.iew.dispLoadInsts                 8156916                       # Number of dispatched load instructions (Count)
system.cpu0.iew.dispStoreInsts                4619377                       # Number of dispatched store instructions (Count)
system.cpu0.iew.dispNonSpecInsts                  458                       # Number of dispatched non-speculative instructions (Count)
system.cpu0.iew.iqFullEvents                     1939                       # Number of times the IQ has become full, causing a stall (Count)
system.cpu0.iew.lsqFullEvents                    7756                       # Number of times the LSQ has become full, causing a stall (Count)
system.cpu0.iew.memOrderViolationEvents           295                       # Number of memory order violations (Count)
system.cpu0.iew.predictedTakenIncorrect         18594                       # Number of branches that were predicted taken incorrectly (Count)
system.cpu0.iew.predictedNotTakenIncorrect         8301                       # Number of branches that were predicted not taken incorrectly (Count)
system.cpu0.iew.branchMispredicts               26895                       # Number of branch mispredicts detected at execute (Count)
system.cpu0.iew.instsToCommit                67153068                       # Cumulative count of insts sent to commit (Count)
system.cpu0.iew.writebackCount               67140203                       # Cumulative count of insts written-back (Count)
system.cpu0.iew.producerInst                 48729399                       # Number of instructions producing a value (Count)
system.cpu0.iew.consumerInst                 82982392                       # Number of instructions consuming a value (Count)
system.cpu0.iew.wbRate                       2.612205                       # Insts written-back per cycle ((Count/Cycle))
system.cpu0.iew.wbFanout                     0.587226                       # Average fanout of values written-back ((Count/Count))
system.cpu0.interrupts.clk_domain.clock          5328                       # Clock period in ticks (Tick)
system.cpu0.itb_walker_cache.blockedCycles::no_mshrs            0                       # number of cycles access was blocked (Cycle)
system.cpu0.itb_walker_cache.blockedCycles::no_targets            0                       # number of cycles access was blocked (Cycle)
system.cpu0.itb_walker_cache.blockedCauses::no_mshrs            0                       # number of times access was blocked (Count)
system.cpu0.itb_walker_cache.blockedCauses::no_targets            0                       # number of times access was blocked (Count)
system.cpu0.itb_walker_cache.avgBlocked::no_mshrs          nan                       # average number of cycles each access was blocked ((Cycle/Count))
system.cpu0.itb_walker_cache.avgBlocked::no_targets          nan                       # average number of cycles each access was blocked ((Cycle/Count))
system.cpu0.itb_walker_cache.replacements            0                       # number of replacements (Count)
system.cpu0.itb_walker_cache.power_state.pwrStateResidencyTicks::UNDEFINED   8616817224                       # Cumulative time (in ticks) in various power states (Tick)
system.cpu0.itb_walker_cache.tags.tagsInUse            0                       # Average ticks per tags in use ((Tick/Count))
[...]
system.monitor.ittReqReq::50001-55000             724      0.77%     53.02% # Request-to-request inter transaction time (Tick)
system.monitor.ittReqReq::55001-60000             611      0.65%     53.67% # Request-to-request inter transaction time (Tick)
system.monitor.ittReqReq::60001-65000            1388      1.48%     55.15% # Request-to-request inter transaction time (Tick)
system.monitor.ittReqReq::65001-70000             877      0.93%     56.09% # Request-to-request inter transaction time (Tick)
system.monitor.ittReqReq::70001-75000            1496      1.59%     57.68% # Request-to-request inter transaction time (Tick)
system.monitor.ittReqReq::75001-80000             912      0.97%     58.65% # Request-to-request inter transaction time (Tick)
system.monitor.ittReqReq::80001-85000            1468      1.56%     60.22% # Request-to-request inter transaction time (Tick)
system.monitor.ittReqReq::85001-90000            1007      1.07%     61.29% # Request-to-request inter transaction time (Tick)
system.monitor.ittReqReq::90001-95000             872      0.93%     62.22% # Request-to-request inter transaction time (Tick)
system.monitor.ittReqReq::95001-100000           1436      1.53%     63.75% # Request-to-request inter transaction time (Tick)
system.monitor.ittReqReq::overflows             34026     36.25%    100.00% # Request-to-request inter transaction time (Tick)
system.monitor.ittReqReq::min_value               333                       # Request-to-request inter transaction time (Tick)
system.monitor.ittReqReq::max_value         712237716                       # Request-to-request inter transaction time (Tick)
system.monitor.ittReqReq::total                 93861                       # Request-to-request inter transaction time (Tick)
system.monitor.outstandingReadsHist::samples            8                       # Outstanding read transactions (Count)
system.monitor.outstandingReadsHist::mean     0.375000                       # Outstanding read transactions (Count)
system.monitor.outstandingReadsHist::gmean            0                       # Outstanding read transactions (Count)
system.monitor.outstandingReadsHist::stdev     0.744024                       # Outstanding read transactions (Count)
system.monitor.outstandingReadsHist::0              6     75.00%     75.00% # Outstanding read transactions (Count)
system.monitor.outstandingReadsHist::1              1     12.50%     87.50% # Outstanding read transactions (Count)
system.monitor.outstandingReadsHist::2              1     12.50%    100.00% # Outstanding read transactions (Count)
system.monitor.outstandingReadsHist::3              0      0.00%    100.00% # Outstanding read transactions (Count)
system.monitor.outstandingReadsHist::4              0      0.00%    100.00% # Outstanding read transactions (Count)
system.monitor.outstandingReadsHist::5              0      0.00%    100.00% # Outstanding read transactions (Count)
system.monitor.outstandingReadsHist::6              0      0.00%    100.00% # Outstanding read transactions (Count)
system.monitor.outstandingReadsHist::7              0      0.00%    100.00% # Outstanding read transactions (Count)
system.monitor.outstandingReadsHist::8              0      0.00%    100.00% # Outstanding read transactions (Count)
system.monitor.outstandingReadsHist::9              0      0.00%    100.00% # Outstanding read transactions (Count)
system.monitor.outstandingReadsHist::10             0      0.00%    100.00% # Outstanding read transactions (Count)
system.monitor.outstandingReadsHist::11             0      0.00%    100.00% # Outstanding read transactions (Count)
system.monitor.outstandingReadsHist::12             0      0.00%    100.00% # Outstanding read transactions (Count)
system.monitor.outstandingReadsHist::13             0      0.00%    100.00% # Outstanding read transactions (Count)
system.monitor.outstandingReadsHist::14             0      0.00%    100.00% # Outstanding read transactions (Count)
system.monitor.outstandingReadsHist::15             0      0.00%    100.00% # Outstanding read transactions (Count)
system.monitor.outstandingReadsHist::16             0      0.00%    100.00% # Outstanding read transactions (Count)
system.monitor.outstandingReadsHist::17             0      0.00%    100.00% # Outstanding read transactions (Count)
system.monitor.outstandingReadsHist::18             0      0.00%    100.00% # Outstanding read transactions (Count)
system.monitor.outstandingReadsHist::19             0      0.00%    100.00% # Outstanding read transactions (Count)
system.monitor.outstandingReadsHist::total            8                       # Outstanding read transactions (Count)
system.monitor.outstandingWritesHist::samples            8                       # Outstanding write transactions (Count)
system.monitor.outstandingWritesHist::mean            0                       # Outstanding write transactions (Count)
system.monitor.outstandingWritesHist::gmean            0                       # Outstanding write transactions (Count)
system.monitor.outstandingWritesHist::stdev            0                       # Outstanding write transactions (Count)
system.monitor.outstandingWritesHist::0             8    100.00%    100.00% # Outstanding write transactions (Count)
system.monitor.outstandingWritesHist::1             0      0.00%    100.00% # Outstanding write transactions (Count)
system.monitor.outstandingWritesHist::2             0      0.00%    100.00% # Outstanding write transactions (Count)
system.monitor.outstandingWritesHist::3             0      0.00%    100.00% # Outstanding write transactions (Count)
system.monitor.outstandingWritesHist::4             0      0.00%    100.00% # Outstanding write transactions (Count)
system.monitor.outstandingWritesHist::5             0      0.00%    100.00% # Outstanding write transactions (Count)
system.monitor.outstandingWritesHist::6             0      0.00%    100.00% # Outstanding write transactions (Count)
system.monitor.outstandingWritesHist::7             0      0.00%    100.00% # Outstanding write transactions (Count)
system.monitor.outstandingWritesHist::8             0      0.00%    100.00% # Outstanding write transactions (Count)
system.monitor.outstandingWritesHist::9             0      0.00%    100.00% # Outstanding write transactions (Count)
system.monitor.outstandingWritesHist::10            0      0.00%    100.00% # Outstanding write transactions (Count)
system.monitor.outstandingWritesHist::11            0      0.00%    100.00% # Outstanding write transactions (Count)
system.monitor.outstandingWritesHist::12            0      0.00%    100.00% # Outstanding write transactions (Count)
system.monitor.outstandingWritesHist::13            0      0.00%    100.00% # Outstanding write transactions (Count)
system.monitor.outstandingWritesHist::14            0      0.00%    100.00% # Outstanding write transactions (Count)
system.monitor.outstandingWritesHist::15            0      0.00%    100.00% # Outstanding write transactions (Count)
system.monitor.outstandingWritesHist::16            0      0.00%    100.00% # Outstanding write transactions (Count)
system.monitor.outstandingWritesHist::17            0      0.00%    100.00% # Outstanding write transactions (Count)
system.monitor.outstandingWritesHist::18            0      0.00%    100.00% # Outstanding write transactions (Count)
system.monitor.outstandingWritesHist::19            0      0.00%    100.00% # Outstanding write transactions (Count)
system.monitor.outstandingWritesHist::total            8                       # Outstanding write transactions (Count)
system.monitor.readTransHist::samples               8                       # Histogram of read transactions per sample period (Count)
system.monitor.readTransHist::mean        8556.375000                       # Histogram of read transactions per sample period (Count)
system.monitor.readTransHist::gmean       7821.032991                       # Histogram of read transactions per sample period (Count)
system.monitor.readTransHist::stdev       4453.111815                       # Histogram of read transactions per sample period (Count)
system.monitor.readTransHist::0-1023                0      0.00%      0.00% # Histogram of read transactions per sample period (Count)
system.monitor.readTransHist::1024-2047             0      0.00%      0.00% # Histogram of read transactions per sample period (Count)
system.monitor.readTransHist::2048-3071             0      0.00%      0.00% # Histogram of read transactions per sample period (Count)
system.monitor.readTransHist::3072-4095             0      0.00%      0.00% # Histogram of read transactions per sample period (Count)
system.monitor.readTransHist::4096-5119             0      0.00%      0.00% # Histogram of read transactions per sample period (Count)
system.monitor.readTransHist::5120-6143             2     25.00%     25.00% # Histogram of read transactions per sample period (Count)
system.monitor.readTransHist::6144-7167             4     50.00%     75.00% # Histogram of read transactions per sample period (Count)
system.monitor.readTransHist::7168-8191             0      0.00%     75.00% # Histogram of read transactions per sample period (Count)
system.monitor.readTransHist::8192-9215             0      0.00%     75.00% # Histogram of read transactions per sample period (Count)
system.monitor.readTransHist::9216-10239            0      0.00%     75.00% # Histogram of read transactions per sample period (Count)
system.monitor.readTransHist::10240-11263            0      0.00%     75.00% # Histogram of read transactions per sample period (Count)
system.monitor.readTransHist::11264-12287            1     12.50%     87.50% # Histogram of read transactions per sample period (Count)
system.monitor.readTransHist::12288-13311            0      0.00%     87.50% # Histogram of read transactions per sample period (Count)
system.monitor.readTransHist::13312-14335            0      0.00%     87.50% # Histogram of read transactions per sample period (Count)
system.monitor.readTransHist::14336-15359            0      0.00%     87.50% # Histogram of read transactions per sample period (Count)
system.monitor.readTransHist::15360-16383            0      0.00%     87.50% # Histogram of read transactions per sample period (Count)
system.monitor.readTransHist::16384-17407            0      0.00%     87.50% # Histogram of read transactions per sample period (Count)
system.monitor.readTransHist::17408-18431            1     12.50%    100.00% # Histogram of read transactions per sample period (Count)
system.monitor.readTransHist::18432-19455            0      0.00%    100.00% # Histogram of read transactions per sample period (Count)
system.monitor.readTransHist::19456-20479            0      0.00%    100.00% # Histogram of read transactions per sample period (Count)
system.monitor.readTransHist::total                 8                       # Histogram of read transactions per sample period (Count)
system.monitor.writeTransHist::samples              8                       # Histogram of write transactions per sample period (Count)
system.monitor.writeTransHist::mean       2657.500000                       # Histogram of write transactions per sample period (Count)
system.monitor.writeTransHist::gmean                0                       # Histogram of write transactions per sample period (Count)
system.monitor.writeTransHist::stdev      3895.317262                       # Histogram of write transactions per sample period (Count)
system.monitor.writeTransHist::0-511                5     62.50%     62.50% # Histogram of write transactions per sample period (Count)
system.monitor.writeTransHist::512-1023             0      0.00%     62.50% # Histogram of write transactions per sample period (Count)
system.monitor.writeTransHist::1024-1535            0      0.00%     62.50% # Histogram of write transactions per sample period (Count)
system.monitor.writeTransHist::1536-2047            0      0.00%     62.50% # Histogram of write transactions per sample period (Count)
system.monitor.writeTransHist::2048-2559            0      0.00%     62.50% # Histogram of write transactions per sample period (Count)
system.monitor.writeTransHist::2560-3071            0      0.00%     62.50% # Histogram of write transactions per sample period (Count)
system.monitor.writeTransHist::3072-3583            0      0.00%     62.50% # Histogram of write transactions per sample period (Count)
system.monitor.writeTransHist::3584-4095            0      0.00%     62.50% # Histogram of write transactions per sample period (Count)
system.monitor.writeTransHist::4096-4607            0      0.00%     62.50% # Histogram of write transactions per sample period (Count)
system.monitor.writeTransHist::4608-5119            1     12.50%     75.00% # Histogram of write transactions per sample period (Count)
system.monitor.writeTransHist::5120-5631            0      0.00%     75.00% # Histogram of write transactions per sample period (Count)
system.monitor.writeTransHist::5632-6143            0      0.00%     75.00% # Histogram of write transactions per sample period (Count)
system.monitor.writeTransHist::6144-6655            0      0.00%     75.00% # Histogram of write transactions per sample period (Count)
system.monitor.writeTransHist::6656-7167            1     12.50%     87.50% # Histogram of write transactions per sample period (Count)
system.monitor.writeTransHist::7168-7679            0      0.00%     87.50% # Histogram of write transactions per sample period (Count)
system.monitor.writeTransHist::7680-8191            0      0.00%     87.50% # Histogram of write transactions per sample period (Count)
system.monitor.writeTransHist::8192-8703            0      0.00%     87.50% # Histogram of write transactions per sample period (Count)
system.monitor.writeTransHist::8704-9215            0      0.00%     87.50% # Histogram of write transactions per sample period (Count)
system.monitor.writeTransHist::9216-9727            0      0.00%     87.50% # Histogram of write transactions per sample period (Count)
system.monitor.writeTransHist::9728-10239            1     12.50%    100.00% # Histogram of write transactions per sample period (Count)
system.monitor.writeTransHist::total                8                       # Histogram of write transactions per sample period (Count)
system.tollcbus.transDist::ReadResp             42802                       # Transaction distribution (Count)
system.tollcbus.transDist::WritebackDirty        24310                       # Transaction distribution (Count)
system.tollcbus.transDist::CleanEvict            4126                       # Transaction distribution (Count)
system.tollcbus.transDist::UpgradeReq           10502                       # Transaction distribution (Count)
system.tollcbus.transDist::UpgradeResp          10502                       # Transaction distribution (Count)
system.tollcbus.transDist::ReadExReq            59116                       # Transaction distribution (Count)
system.tollcbus.transDist::ReadExResp           59116                       # Transaction distribution (Count)
system.tollcbus.transDist::ReadSharedReq        42802                       # Transaction distribution (Count)
system.tollcbus.pktCount_system.cpu0.l2cache.mem_side_port::system.monitor-cpu_side_port       148880                       # Packet count per connected requestor and responder (Count)
system.tollcbus.pktCount_system.cpu1.l2cache.mem_side_port::system.monitor-cpu_side_port        71735                       # Packet count per connected requestor and responder (Count)
system.tollcbus.pktCount::total                220615                       # Packet count per connected requestor and responder (Count)
system.tollcbus.pktSize_system.cpu0.l2cache.mem_side_port::system.monitor-cpu_side_port      4882304                       # Cumulative packet size per connected requestor and responder (Byte)
system.tollcbus.pktSize_system.cpu1.l2cache.mem_side_port::system.monitor-cpu_side_port      1123136                       # Cumulative packet size per connected requestor and responder (Byte)
system.tollcbus.pktSize::total                6005440                       # Cumulative packet size per connected requestor and responder (Byte)
system.tollcbus.snoops                          32661                       # Total snoops (Count)
system.tollcbus.snoopTraffic                  2073152                       # Total snoop traffic (Byte)
system.tollcbus.snoopFanout::samples           112420                       # Request fanout histogram (Count)
system.tollcbus.snoopFanout::mean            0.378554                       # Request fanout histogram (Count)
system.tollcbus.snoopFanout::stdev           0.485029                       # Request fanout histogram (Count)
system.tollcbus.snoopFanout::underflows             0      0.00%      0.00% # Request fanout histogram (Count)
system.tollcbus.snoopFanout::0                  69863     62.14%     62.14% # Request fanout histogram (Count)
system.tollcbus.snoopFanout::1                  42557     37.86%    100.00% # Request fanout histogram (Count)
system.tollcbus.snoopFanout::2                      0      0.00%    100.00% # Request fanout histogram (Count)
system.tollcbus.snoopFanout::overflows              0      0.00%    100.00% # Request fanout histogram (Count)
system.tollcbus.snoopFanout::min_value              0                       # Request fanout histogram (Count)
system.tollcbus.snoopFanout::max_value              1                       # Request fanout histogram (Count)
system.tollcbus.snoopFanout::total             112420                       # Request fanout histogram (Count)
system.tollcbus.power_state.pwrStateResidencyTicks::UNDEFINED   8616817224                       # Cumulative time (in ticks) in various power states (Tick)
system.tollcbus.reqLayer0.occupancy          63101816                       # Layer occupancy (ticks) (Tick)
system.tollcbus.reqLayer0.utilization             0.0                       # Layer utilization (Ratio)
system.tollcbus.respLayer0.occupancy         64510079                       # Layer occupancy (ticks) (Tick)
system.tollcbus.respLayer0.utilization            0.0                       # Layer utilization (Ratio)
system.tollcbus.respLayer1.occupancy         40809809                       # Layer occupancy (ticks) (Tick)
system.tollcbus.respLayer1.utilization            0.0                       # Layer utilization (Ratio)
system.tollcbus.snoop_filter.totRequests       140856                       # Total number of requests made to the snoop filter. (Count)
system.tollcbus.snoop_filter.hitSingleRequests        55433                       # Number of requests hitting in the snoop filter with a single holder of the requested data. (Count)
system.tollcbus.snoop_filter.hitMultiRequests        17852                       # Number of requests hitting in the snoop filter with multiple (>1) holders of the requested data. (Count)
system.tollcbus.snoop_filter.totSnoops              0                       # Total number of snoops made to the snoop filter. (Count)
system.tollcbus.snoop_filter.hitSingleSnoops            0                       # Number of snoops hitting in the snoop filter with a single holder of the requested data. (Count)
system.tollcbus.snoop_filter.hitMultiSnoops            0                       # Number of snoops hitting in the snoop filter with multiple (>1) holders of the requested data. (Count)
system.voltage_domain.voltage                       1                       # Voltage in Volts (Volt)
system.workload.inst.arm                            0                       # number of arm instructions executed (Count)
system.workload.inst.quiesce                        0                       # number of quiesce instructions executed (Count)

---------- End Simulation Statistics   ----------
