
---------- Begin Simulation Statistics ----------
simSeconds                                   0.007321                       # Number of seconds simulated (Second)
simTicks                                   7320949722                       # Number of ticks simulated (Tick)
finalTick                                  7320949722                       # Number of ticks from beginning of simulation (restored from checkpoints and never reset) (Tick)
simFreq                                  1000000000000                       # The number of ticks per simulated second ((Tick/Second))
hostSeconds                                    127.55                       # Real time elapsed on the host (Second)
hostTickRate                                 57395301                       # The number of ticks simulated per host second (ticks/s) ((Tick/Second))
hostMemory                                     706616                       # Number of bytes of host memory used (Byte)
simInsts                                     43936876                       # Number of instructions simulated (Count)
simOps                                       43937025                       # Number of ops (including micro ops) simulated (Count)
hostInstRate                                   344459                       # Simulator instruction rate (inst/s) ((Count/Second))
hostOpRate                                     344460                       # Simulator op (including micro ops) rate (op/s) ((Count/Second))
system.clk_domain.clock                          1000                       # Clock period in ticks (Tick)
system.cpu0.numCycles                        21829725                       # Number of cpu cycles simulated (Cycle)
system.cpu0.numWorkItemsStarted                     0                       # Number of work items this cpu started (Count)
system.cpu0.numWorkItemsCompleted                   0                       # Number of work items this cpu completed (Count)
system.cpu0.instsAdded                       31098352                       # Number of instructions added to the IQ (excludes non-spec) (Count)
system.cpu0.nonSpecInstsAdded                   67188                       # Number of non-speculative instructions added to the IQ (Count)
system.cpu0.instsIssued                      31432131                       # Number of instructions issued (Count)
system.cpu0.squashedInstsIssued                  8528                       # Number of squashed instructions issued (Count)
system.cpu0.squashedInstsExamined              336567                       # Number of squashed instructions iterated over during squash; mainly for profiling (Count)
system.cpu0.squashedOperandsExamined           289632                       # Number of squashed operands that are examined and possibly removed from graph (Count)
system.cpu0.squashedNonSpecRemoved                913                       # Number of squashed non-spec instructions that were removed (Count)
system.cpu0.numIssuedDist::samples           21737173                       # Number of insts issued each cycle (Count)
system.cpu0.numIssuedDist::mean              1.446008                       # Number of insts issued each cycle (Count)
system.cpu0.numIssuedDist::stdev             2.005230                       # Number of insts issued each cycle (Count)
system.cpu0.numIssuedDist::underflows               0      0.00%      0.00% # Number of insts issued each cycle (Count)
system.cpu0.numIssuedDist::0                 11438286     52.62%     52.62% # Number of insts issued each cycle (Count)
system.cpu0.numIssuedDist::1                  2783333     12.80%     65.43% # Number of insts issued each cycle (Count)
system.cpu0.numIssuedDist::2                  2048140      9.42%     74.85% # Number of insts issued each cycle (Count)
system.cpu0.numIssuedDist::3                  1793613      8.25%     83.10% # Number of insts issued each cycle (Count)
system.cpu0.numIssuedDist::4                  1358846      6.25%     89.35% # Number of insts issued each cycle (Count)
system.cpu0.numIssuedDist::5                  1034746      4.76%     94.11% # Number of insts issued each cycle (Count)
system.cpu0.numIssuedDist::6                   689898      3.17%     97.28% # Number of insts issued each cycle (Count)
system.cpu0.numIssuedDist::7                   299311      1.38%     98.66% # Number of insts issued each cycle (Count)
system.cpu0.numIssuedDist::8                   291000      1.34%    100.00% # Number of insts issued each cycle (Count)
system.cpu0.numIssuedDist::overflows                0      0.00%    100.00% # Number of insts issued each cycle (Count)
system.cpu0.numIssuedDist::min_value                0                       # Number of insts issued each cycle (Count)
system.cpu0.numIssuedDist::max_value                8                       # Number of insts issued each cycle (Count)
system.cpu0.numIssuedDist::total             21737173                       # Number of insts issued each cycle (Count)
system.cpu0.statFuBusy::No_OpClass                  0      0.00%      0.00% # attempts to use FU when none available (Count)
system.cpu0.statFuBusy::IntAlu                  50373      5.74%      5.74% # attempts to use FU when none available (Count)
system.cpu0.statFuBusy::IntMult                    25      0.00%      5.74% # attempts to use FU when none available (Count)
system.cpu0.statFuBusy::IntDiv                      1      0.00%      5.74% # attempts to use FU when none available (Count)
system.cpu0.statFuBusy::FloatAdd                 1910      0.22%      5.96% # attempts to use FU when none available (Count)
system.cpu0.statFuBusy::FloatCmp                    0      0.00%      5.96% # attempts to use FU when none available (Count)
system.cpu0.statFuBusy::FloatCvt                 4111      0.47%      6.43% # attempts to use FU when none available (Count)
system.cpu0.statFuBusy::FloatMult               97295     11.09%     17.52% # attempts to use FU when none available (Count)
system.cpu0.statFuBusy::FloatMultAcc           168614     19.22%     36.74% # attempts to use FU when none available (Count)
system.cpu0.statFuBusy::FloatDiv                 5135      0.59%     37.32% # attempts to use FU when none available (Count)
system.cpu0.statFuBusy::FloatMisc               14254      1.62%     38.95% # attempts to use FU when none available (Count)
system.cpu0.statFuBusy::FloatSqrt                   0      0.00%     38.95% # attempts to use FU when none available (Count)
system.cpu0.statFuBusy::SimdAdd                     0      0.00%     38.95% # attempts to use FU when none available (Count)
system.cpu0.statFuBusy::SimdAddAcc                  0      0.00%     38.95% # attempts to use FU when none available (Count)
system.cpu0.statFuBusy::SimdAlu                     0      0.00%     38.95% # attempts to use FU when none available (Count)
system.cpu0.statFuBusy::SimdCmp                     0      0.00%     38.95% # attempts to use FU when none available (Count)
system.cpu0.statFuBusy::SimdCvt                     0      0.00%     38.95% # attempts to use FU when none available (Count)
system.cpu0.statFuBusy::SimdMisc                    0      0.00%     38.95% # attempts to use FU when none available (Count)
system.cpu0.statFuBusy::SimdMult                    0      0.00%     38.95% # attempts to use FU when none available (Count)
system.cpu0.statFuBusy::SimdMultAcc                 0      0.00%     38.95% # attempts to use FU when none available (Count)
system.cpu0.statFuBusy::SimdShift                   0      0.00%     38.95% # attempts to use FU when none available (Count)
system.cpu0.statFuBusy::SimdShiftAcc                0      0.00%     38.95% # attempts to use FU when none available (Count)
system.cpu0.statFuBusy::SimdDiv                     0      0.00%     38.95% # attempts to use FU when none available (Count)
system.cpu0.statFuBusy::SimdSqrt                    0      0.00%     38.95% # attempts to use FU when none available (Count)
system.cpu0.statFuBusy::SimdFloatAdd                0      0.00%     38.95% # attempts to use FU when none available (Count)
system.cpu0.statFuBusy::SimdFloatAlu                0      0.00%     38.95% # attempts to use FU when none available (Count)
system.cpu0.statFuBusy::SimdFloatCmp                0      0.00%     38.95% # attempts to use FU when none available (Count)
system.cpu0.statFuBusy::SimdFloatCvt                0      0.00%     38.95% # attempts to use FU when none available (Count)
system.cpu0.statFuBusy::SimdFloatDiv                0      0.00%     38.95% # attempts to use FU when none available (Count)
system.cpu0.statFuBusy::SimdFloatMisc               0      0.00%     38.95% # attempts to use FU when none available (Count)
system.cpu0.statFuBusy::SimdFloatMult               0      0.00%     38.95% # attempts to use FU when none available (Count)
system.cpu0.statFuBusy::SimdFloatMultAcc            0      0.00%     38.95% # attempts to use FU when none available (Count)
system.cpu0.statFuBusy::SimdFloatSqrt               0      0.00%     38.95% # attempts to use FU when none available (Count)
system.cpu0.statFuBusy::SimdReduceAdd               0      0.00%     38.95% # attempts to use FU when none available (Count)
system.cpu0.statFuBusy::SimdReduceAlu               0      0.00%     38.95% # attempts to use FU when none available (Count)
system.cpu0.statFuBusy::SimdReduceCmp               0      0.00%     38.95% # attempts to use FU when none available (Count)
system.cpu0.statFuBusy::SimdFloatReduceAdd            0      0.00%     38.95% # attempts to use FU when none available (Count)
system.cpu0.statFuBusy::SimdFloatReduceCmp            0      0.00%     38.95% # attempts to use FU when none available (Count)
system.cpu0.statFuBusy::SimdAes                     0      0.00%     38.95% # attempts to use FU when none available (Count)
system.cpu0.statFuBusy::SimdAesMix                  0      0.00%     38.95% # attempts to use FU when none available (Count)
system.cpu0.statFuBusy::SimdSha1Hash                0      0.00%     38.95% # attempts to use FU when none available (Count)
system.cpu0.statFuBusy::SimdSha1Hash2               0      0.00%     38.95% # attempts to use FU when none available (Count)
system.cpu0.statFuBusy::SimdSha256Hash              0      0.00%     38.95% # attempts to use FU when none available (Count)
system.cpu0.statFuBusy::SimdSha256Hash2             0      0.00%     38.95% # attempts to use FU when none available (Count)
system.cpu0.statFuBusy::SimdShaSigma2               0      0.00%     38.95% # attempts to use FU when none available (Count)
system.cpu0.statFuBusy::SimdShaSigma3               0      0.00%     38.95% # attempts to use FU when none available (Count)
system.cpu0.statFuBusy::SimdPredAlu                 0      0.00%     38.95% # attempts to use FU when none available (Count)
system.cpu0.statFuBusy::MemRead                 19136      2.18%     41.13% # attempts to use FU when none available (Count)
system.cpu0.statFuBusy::MemWrite                54100      6.17%     47.30% # attempts to use FU when none available (Count)
system.cpu0.statFuBusy::FloatMemRead           441778     50.35%     97.65% # attempts to use FU when none available (Count)
system.cpu0.statFuBusy::FloatMemWrite           20630      2.35%    100.00% # attempts to use FU when none available (Count)
system.cpu0.statFuBusy::IprAccess                   0      0.00%    100.00% # attempts to use FU when none available (Count)
system.cpu0.statFuBusy::InstPrefetch                0      0.00%    100.00% # attempts to use FU when none available (Count)
system.cpu0.statIssuedInstType_0::No_OpClass        66067      0.21%      0.21% # Number of instructions issued per FU type, per thread (Count)
system.cpu0.statIssuedInstType_0::IntAlu     14961720     47.60%     47.81% # Number of instructions issued per FU type, per thread (Count)
system.cpu0.statIssuedInstType_0::IntMult       132045      0.42%     48.23% # Number of instructions issued per FU type, per thread (Count)
system.cpu0.statIssuedInstType_0::IntDiv         2508      0.01%     48.24% # Number of instructions issued per FU type, per thread (Count)
system.cpu0.statIssuedInstType_0::FloatAdd      2369738      7.54%     55.78% # Number of instructions issued per FU type, per thread (Count)
system.cpu0.statIssuedInstType_0::FloatCmp       185481      0.59%     56.37% # Number of instructions issued per FU type, per thread (Count)
system.cpu0.statIssuedInstType_0::FloatCvt       831074      2.64%     59.01% # Number of instructions issued per FU type, per thread (Count)
system.cpu0.statIssuedInstType_0::FloatMult      1982726      6.31%     65.32% # Number of instructions issued per FU type, per thread (Count)
system.cpu0.statIssuedInstType_0::FloatMultAcc      1067141      3.40%     68.71% # Number of instructions issued per FU type, per thread (Count)
system.cpu0.statIssuedInstType_0::FloatDiv        66272      0.21%     68.93% # Number of instructions issued per FU type, per thread (Count)
system.cpu0.statIssuedInstType_0::FloatMisc       338054      1.08%     70.00% # Number of instructions issued per FU type, per thread (Count)
system.cpu0.statIssuedInstType_0::FloatSqrt            0      0.00%     70.00% # Number of instructions issued per FU type, per thread (Count)
system.cpu0.statIssuedInstType_0::SimdAdd            0      0.00%     70.00% # Number of instructions issued per FU type, per thread (Count)
system.cpu0.statIssuedInstType_0::SimdAddAcc            0      0.00%     70.00% # Number of instructions issued per FU type, per thread (Count)
system.cpu0.statIssuedInstType_0::SimdAlu            0      0.00%     70.00% # Number of instructions issued per FU type, per thread (Count)
system.cpu0.statIssuedInstType_0::SimdCmp            0      0.00%     70.00% # Number of instructions issued per FU type, per thread (Count)
system.cpu0.statIssuedInstType_0::SimdCvt            0      0.00%     70.00% # Number of instructions issued per FU type, per thread (Count)
system.cpu0.statIssuedInstType_0::SimdMisc            0      0.00%     70.00% # Number of instructions issued per FU type, per thread (Count)
system.cpu0.statIssuedInstType_0::SimdMult            0      0.00%     70.00% # Number of instructions issued per FU type, per thread (Count)
system.cpu0.statIssuedInstType_0::SimdMultAcc            0      0.00%     70.00% # Number of instructions issued per FU type, per thread (Count)
system.cpu0.statIssuedInstType_0::SimdShift            0      0.00%     70.00% # Number of instructions issued per FU type, per thread (Count)
system.cpu0.statIssuedInstType_0::SimdShiftAcc            0      0.00%     70.00% # Number of instructions issued per FU type, per thread (Count)
system.cpu0.statIssuedInstType_0::SimdDiv            0      0.00%     70.00% # Number of instructions issued per FU type, per thread (Count)
system.cpu0.statIssuedInstType_0::SimdSqrt            0      0.00%     70.00% # Number of instructions issued per FU type, per thread (Count)
system.cpu0.statIssuedInstType_0::SimdFloatAdd            0      0.00%     70.00% # Number of instructions issued per FU type, per thread (Count)
system.cpu0.statIssuedInstType_0::SimdFloatAlu            0      0.00%     70.00% # Number of instructions issued per FU type, per thread (Count)
system.cpu0.statIssuedInstType_0::SimdFloatCmp            0      0.00%     70.00% # Number of instructions issued per FU type, per thread (Count)
system.cpu0.statIssuedInstType_0::SimdFloatCvt            0      0.00%     70.00% # Number of instructions issued per FU type, per thread (Count)
system.cpu0.statIssuedInstType_0::SimdFloatDiv            0      0.00%     70.00% # Number of instructions issued per FU type, per thread (Count)
system.cpu0.statIssuedInstType_0::SimdFloatMisc            0      0.00%     70.00% # Number of instructions issued per FU type, per thread (Count)
system.cpu0.statIssuedInstType_0::SimdFloatMult            0      0.00%     70.00% # Number of instructions issued per FU type, per thread (Count)
system.cpu0.statIssuedInstType_0::SimdFloatMultAcc            0      0.00%     70.00% # Number of instructions issued per FU type, per thread (Count)
system.cpu0.statIssuedInstType_0::SimdFloatSqrt            0      0.00%     70.00% # Number of instructions issued per FU type, per thread (Count)
system.cpu0.statIssuedInstType_0::SimdReduceAdd            0      0.00%     70.00% # Number of instructions issued per FU type, per thread (Count)
system.cpu0.statIssuedInstType_0::SimdReduceAlu            0      0.00%     70.00% # Number of instructions issued per FU type, per thread (Count)
system.cpu0.statIssuedInstType_0::SimdReduceCmp            0      0.00%     70.00% # Number of instructions issued per FU type, per thread (Count)
system.cpu0.statIssuedInstType_0::SimdFloatReduceAdd            0      0.00%     70.00% # Number of instructions issued per FU type, per thread (Count)
system.cpu0.statIssuedInstType_0::SimdFloatReduceCmp            0      0.00%     70.00% # Number of instructions issued per FU type, per thread (Count)
system.cpu0.statIssuedInstType_0::SimdAes            0      0.00%     70.00% # Number of instructions issued per FU type, per thread (Count)
system.cpu0.statIssuedInstType_0::SimdAesMix            0      0.00%     70.00% # Number of instructions issued per FU type, per thread (Count)
system.cpu0.statIssuedInstType_0::SimdSha1Hash            0      0.00%     70.00% # Number of instructions issued per FU type, per thread (Count)
system.cpu0.statIssuedInstType_0::SimdSha1Hash2            0      0.00%     70.00% # Number of instructions issued per FU type, per thread (Count)
system.cpu0.statIssuedInstType_0::SimdSha256Hash            0      0.00%     70.00% # Number of instructions issued per FU type, per thread (Count)
system.cpu0.statIssuedInstType_0::SimdSha256Hash2            0      0.00%     70.00% # Number of instructions issued per FU type, per thread (Count)
system.cpu0.statIssuedInstType_0::SimdShaSigma2            0      0.00%     70.00% # Number of instructions issued per FU type, per thread (Count)
system.cpu0.statIssuedInstType_0::SimdShaSigma3            0      0.00%     70.00% # Number of instructions issued per FU type, per thread (Count)
system.cpu0.statIssuedInstType_0::SimdPredAlu            0      0.00%     70.00% # Number of instructions issued per FU type, per thread (Count)
system.cpu0.statIssuedInstType_0::MemRead      2122743      6.75%     76.75% # Number of instructions issued per FU type, per thread (Count)
system.cpu0.statIssuedInstType_0::MemWrite      1263471      4.02%     80.77% # Number of instructions issued per FU type, per thread (Count)
system.cpu0.statIssuedInstType_0::FloatMemRead      4063786     12.93%     93.70% # Number of instructions issued per FU type, per thread (Count)
system.cpu0.statIssuedInstType_0::FloatMemWrite      1979305      6.30%    100.00% # Number of instructions issued per FU type, per thread (Count)
system.cpu0.statIssuedInstType_0::IprAccess            0      0.00%    100.00% # Number of instructions issued per FU type, per thread (Count)
system.cpu0.statIssuedInstType_0::InstPrefetch            0      0.00%    100.00% # Number of instructions issued per FU type, per thread (Count)
system.cpu0.statIssuedInstType_0::total      31432131                       # Number of instructions issued per FU type, per thread (Count)
system.cpu0.issueRate                        1.439878                       # Inst issue rate ((Count/Cycle))
system.cpu0.fuBusy                             877362                       # FU busy when requested (Count)
system.cpu0.fuBusyRate                       0.027913                       # FU busy rate (busy events/executed inst) ((Count/Count))
system.cpu0.intInstQueueReads                58958398                       # Number of integer instruction queue reads (Count)
system.cpu0.intInstQueueWrites               18724334                       # Number of integer instruction queue writes (Count)
system.cpu0.intInstQueueWakeupAccesses       18516658                       # Number of integer instruction queue wakeup accesses (Count)
system.cpu0.fpInstQueueReads                 26528927                       # Number of floating instruction queue reads (Count)
system.cpu0.fpInstQueueWrites                12778093                       # Number of floating instruction queue writes (Count)
system.cpu0.fpInstQueueWakeupAccesses        12446346                       # Number of floating instruction queue wakeup accesses (Count)
system.cpu0.vecInstQueueReads                       0                       # Number of vector instruction queue reads (Count)
system.cpu0.vecInstQueueWrites                      0                       # Number of vector instruction queue writes (Count)
system.cpu0.vecInstQueueWakeupAccesses              0                       # Number of vector instruction queue wakeup accesses (Count)
system.cpu0.intAluAccesses                   18606122                       # Number of integer alu accesses (Count)
system.cpu0.fpAluAccesses                    13637304                       # Number of floating point alu accesses (Count)
system.cpu0.vecAluAccesses                          0                       # Number of vector alu accesses (Count)
system.cpu0.numInsts                         31373724                       # Number of executed instructions (Count)
system.cpu0.numLoadInsts                      6157728                       # Number of load instructions executed (Count)
system.cpu0.numSquashedInsts                    58407                       # Number of squashed instructions skipped in execute (Count)
system.cpu0.numSwp                                  0                       # Number of swp insts executed (Count)
system.cpu0.numNop                                  0                       # Number of nop insts executed (Count)
system.cpu0.numRefs                           9399440                       # Number of memory reference insts executed (Count)
system.cpu0.numBranches                       3289393                       # Number of branches executed (Count)
system.cpu0.numStoreInsts                     3241712                       # Number of stores executed (Count)
system.cpu0.numRate                          1.437202                       # Inst execution rate ((Count/Cycle))
system.cpu0.timesIdled                            584                       # Number of times that the entire CPU went into an idle state and unscheduled itself (Count)
system.cpu0.idleCycles                          92552                       # Total number of cycles that the CPU has spent unscheduled due to idling (Cycle)
system.cpu0.quiesceCycles                      155111                       # Total number of cycles that CPU has spent quiesced or waiting for an interrupt (Cycle)
system.cpu0.committedInsts                   30828858                       # Number of Instructions Simulated (Count)
system.cpu0.committedOps                     30828972                       # Number of Ops (including micro ops) Simulated (Count)
system.cpu0.cpi                              0.708094                       # CPI: Cycles Per Instruction ((Cycle/Count))
system.cpu0.totalCpi                         0.708094                       # CPI: Total CPI of All Threads ((Cycle/Count))
system.cpu0.ipc                              1.412242                       # IPC: Instructions Per Cycle ((Count/Cycle))
system.cpu0.totalIpc                         1.412242                       # IPC: Total IPC of All Threads ((Count/Cycle))
system.cpu0.intRegfileReads                  28378647                       # Number of integer regfile reads (Count)
system.cpu0.intRegfileWrites                 14761770                       # Number of integer regfile writes (Count)
system.cpu0.fpRegfileReads                   15208908                       # Number of floating regfile reads (Count)
system.cpu0.fpRegfileWrites                  10142316                       # Number of floating regfile writes (Count)
system.cpu0.miscRegfileReads                 24763030                       # number of misc regfile reads (Count)
system.cpu0.miscRegfileWrites                 6826022                       # number of misc regfile writes (Count)
system.cpu0.MemDepUnit__0.insertedLoads       5814110                       # Number of loads inserted to the mem dependence unit. (Count)
system.cpu0.MemDepUnit__0.insertedStores      3272609                       # Number of stores inserted to the mem dependence unit. (Count)
system.cpu0.MemDepUnit__0.conflictingLoads       861228                       # Number of conflicting loads. (Count)
system.cpu0.MemDepUnit__0.conflictingStores       396236                       # Number of conflicting stores. (Count)
system.cpu0.MemDepUnit__1.insertedLoads             0                       # Number of loads inserted to the mem dependence unit. (Count)
system.cpu0.MemDepUnit__1.insertedStores            0                       # Number of stores inserted to the mem dependence unit. (Count)
system.cpu0.MemDepUnit__1.conflictingLoads            0                       # Number of conflicting loads. (Count)
system.cpu0.MemDepUnit__1.conflictingStores            0                       # Number of conflicting stores. (Count)
system.cpu0.MemDepUnit__2.insertedLoads             0                       # Number of loads inserted to the mem dependence unit. (Count)
system.cpu0.MemDepUnit__2.insertedStores            0                       # Number of stores inserted to the mem dependence unit. (Count)
system.cpu0.MemDepUnit__2.conflictingLoads            0                       # Number of conflicting loads. (Count)
system.cpu0.MemDepUnit__2.conflictingStores            0                       # Number of conflicting stores. (Count)
system.cpu0.MemDepUnit__3.insertedLoads             0                       # Number of loads inserted to the mem dependence unit. (Count)
system.cpu0.MemDepUnit__3.insertedStores            0                       # Number of stores inserted to the mem dependence unit. (Count)
system.cpu0.MemDepUnit__3.conflictingLoads            0                       # Number of conflicting loads. (Count)
system.cpu0.MemDepUnit__3.conflictingStores            0                       # Number of conflicting stores. (Count)
system.cpu0.branchPred.lookups                3350761                       # Number of BP lookups (Count)
system.cpu0.branchPred.condPredicted          2344096                       # Number of conditional branches predicted (Count)
system.cpu0.branchPred.condIncorrect            21189                       # Number of conditional branches incorrect (Count)
system.cpu0.branchPred.BTBLookups             1915560                       # Number of BTB lookups (Count)
system.cpu0.branchPred.BTBHits                1913623                       # Number of BTB hits (Count)
system.cpu0.branchPred.BTBHitRatio           0.998989                       # BTB Hit Ratio (Ratio)
system.cpu0.branchPred.RASUsed                 463424                       # Number of times the RAS was used to get a target. (Count)
system.cpu0.branchPred.RASIncorrect                12                       # Number of incorrect RAS predictions. (Count)
system.cpu0.branchPred.indirectLookups            481                       # Number of indirect predictor lookups. (Count)
system.cpu0.branchPred.indirectHits               168                       # Number of indirect target hits. (Count)
system.cpu0.branchPred.indirectMisses             313                       # Number of indirect misses. (Count)
system.cpu0.branchPred.indirectMispredicted          126                       # Number of mispredicted indirect branches. (Count)
system.cpu0.commit.commitSquashedInsts         326357                       # The number of squashed insts skipped by commit (Count)
system.cpu0.commit.commitNonSpecStalls          66275                       # The number of times commit has been forced to stall to communicate backwards (Count)
system.cpu0.commit.branchMispredicts            20672                       # The number of times a branch was mispredicted (Count)
system.cpu0.commit.numCommittedDist::samples     21688981                       # Number of insts commited each cycle (Count)
system.cpu0.commit.numCommittedDist::mean     1.421412                       # Number of insts commited each cycle (Count)
system.cpu0.commit.numCommittedDist::stdev     2.462350                       # Number of insts commited each cycle (Count)
system.cpu0.commit.numCommittedDist::underflows            0      0.00%      0.00% # Number of insts commited each cycle (Count)
system.cpu0.commit.numCommittedDist::0       13751958     63.41%     63.41% # Number of insts commited each cycle (Count)
system.cpu0.commit.numCommittedDist::1        1619002      7.46%     70.87% # Number of insts commited each cycle (Count)
system.cpu0.commit.numCommittedDist::2        1666814      7.69%     78.55% # Number of insts commited each cycle (Count)
system.cpu0.commit.numCommittedDist::3        1464890      6.75%     85.31% # Number of insts commited each cycle (Count)
system.cpu0.commit.numCommittedDist::4         680359      3.14%     88.45% # Number of insts commited each cycle (Count)
system.cpu0.commit.numCommittedDist::5         226932      1.05%     89.49% # Number of insts commited each cycle (Count)
system.cpu0.commit.numCommittedDist::6         268550      1.24%     90.73% # Number of insts commited each cycle (Count)
system.cpu0.commit.numCommittedDist::7          69532      0.32%     91.05% # Number of insts commited each cycle (Count)
system.cpu0.commit.numCommittedDist::8        1940944      8.95%    100.00% # Number of insts commited each cycle (Count)
system.cpu0.commit.numCommittedDist::overflows            0      0.00%    100.00% # Number of insts commited each cycle (Count)
system.cpu0.commit.numCommittedDist::min_value            0                       # Number of insts commited each cycle (Count)
system.cpu0.commit.numCommittedDist::max_value            8                       # Number of insts commited each cycle (Count)
system.cpu0.commit.numCommittedDist::total     21688981                       # Number of insts commited each cycle (Count)
system.cpu0.commit.instsCommitted            30828858                       # Number of instructions committed (Count)
system.cpu0.commit.opsCommitted              30828972                       # Number of ops (including micro ops) committed (Count)
system.cpu0.commit.memRefs                    8953324                       # Number of memory references committed (Count)
system.cpu0.commit.loads                      5722619                       # Number of loads committed (Count)
system.cpu0.commit.amos                           128                       # Number of atomic instructions committed (Count)
system.cpu0.commit.membars                        225                       # Number of memory barriers committed (Count)
system.cpu0.commit.branches                   3272372                       # Number of branches committed (Count)
system.cpu0.commit.vectorInstructions               0                       # Number of committed Vector instructions. (Count)
system.cpu0.commit.floating                  12415101                       # Number of committed floating point instructions. (Count)
system.cpu0.commit.integer                   24936042                       # Number of committed integer instructions. (Count)
system.cpu0.commit.functionCalls               460316                       # Number of function calls committed. (Count)
system.cpu0.commit.committedInstType_0::No_OpClass        66017      0.21%      0.21% # Class of committed instruction (Count)
system.cpu0.commit.committedInstType_0::IntAlu     14849620     48.17%     48.38% # Class of committed instruction (Count)
system.cpu0.commit.committedInstType_0::IntMult       131766      0.43%     48.81% # Class of committed instruction (Count)
system.cpu0.commit.committedInstType_0::IntDiv         2223      0.01%     48.82% # Class of committed instruction (Count)
system.cpu0.commit.committedInstType_0::FloatAdd      2369069      7.68%     56.50% # Class of committed instruction (Count)
system.cpu0.commit.committedInstType_0::FloatCmp       183887      0.60%     57.10% # Class of committed instruction (Count)
system.cpu0.commit.committedInstType_0::FloatCvt       824090      2.67%     59.77% # Class of committed instruction (Count)
system.cpu0.commit.committedInstType_0::FloatMult      1979385      6.42%     66.19% # Class of committed instruction (Count)
system.cpu0.commit.committedInstType_0::FloatMultAcc      1066472      3.46%     69.65% # Class of committed instruction (Count)
system.cpu0.commit.committedInstType_0::FloatDiv        65794      0.21%     69.86% # Class of committed instruction (Count)
system.cpu0.commit.committedInstType_0::FloatMisc       337325      1.09%     70.96% # Class of committed instruction (Count)
system.cpu0.commit.committedInstType_0::FloatSqrt            0      0.00%     70.96% # Class of committed instruction (Count)
system.cpu0.commit.committedInstType_0::SimdAdd            0      0.00%     70.96% # Class of committed instruction (Count)
system.cpu0.commit.committedInstType_0::SimdAddAcc            0      0.00%     70.96% # Class of committed instruction (Count)
system.cpu0.commit.committedInstType_0::SimdAlu            0      0.00%     70.96% # Class of committed instruction (Count)
system.cpu0.commit.committedInstType_0::SimdCmp            0      0.00%     70.96% # Class of committed instruction (Count)
system.cpu0.commit.committedInstType_0::SimdCvt            0      0.00%     70.96% # Class of committed instruction (Count)
system.cpu0.commit.committedInstType_0::SimdMisc            0      0.00%     70.96% # Class of committed instruction (Count)
system.cpu0.commit.committedInstType_0::SimdMult            0      0.00%     70.96% # Class of committed instruction (Count)
system.cpu0.commit.committedInstType_0::SimdMultAcc            0      0.00%     70.96% # Class of committed instruction (Count)
system.cpu0.commit.committedInstType_0::SimdShift            0      0.00%     70.96% # Class of committed instruction (Count)
system.cpu0.commit.committedInstType_0::SimdShiftAcc            0      0.00%     70.96% # Class of committed instruction (Count)
system.cpu0.commit.committedInstType_0::SimdDiv            0      0.00%     70.96% # Class of committed instruction (Count)
system.cpu0.commit.committedInstType_0::SimdSqrt            0      0.00%     70.96% # Class of committed instruction (Count)
system.cpu0.commit.committedInstType_0::SimdFloatAdd            0      0.00%     70.96% # Class of committed instruction (Count)
system.cpu0.commit.committedInstType_0::SimdFloatAlu            0      0.00%     70.96% # Class of committed instruction (Count)
system.cpu0.commit.committedInstType_0::SimdFloatCmp            0      0.00%     70.96% # Class of committed instruction (Count)
system.cpu0.commit.committedInstType_0::SimdFloatCvt            0      0.00%     70.96% # Class of committed instruction (Count)
system.cpu0.commit.committedInstType_0::SimdFloatDiv            0      0.00%     70.96% # Class of committed instruction (Count)
system.cpu0.commit.committedInstType_0::SimdFloatMisc            0      0.00%     70.96% # Class of committed instruction (Count)
system.cpu0.commit.committedInstType_0::SimdFloatMult            0      0.00%     70.96% # Class of committed instruction (Count)
system.cpu0.commit.committedInstType_0::SimdFloatMultAcc            0      0.00%     70.96% # Class of committed instruction (Count)
system.cpu0.commit.committedInstType_0::SimdFloatSqrt            0      0.00%     70.96% # Class of committed instruction (Count)
system.cpu0.commit.committedInstType_0::SimdReduceAdd            0      0.00%     70.96% # Class of committed instruction (Count)
system.cpu0.commit.committedInstType_0::SimdReduceAlu            0      0.00%     70.96% # Class of committed instruction (Count)
system.cpu0.commit.committedInstType_0::SimdReduceCmp            0      0.00%     70.96% # Class of committed instruction (Count)
system.cpu0.commit.committedInstType_0::SimdFloatReduceAdd            0      0.00%     70.96% # Class of committed instruction (Count)
system.cpu0.commit.committedInstType_0::SimdFloatReduceCmp            0      0.00%     70.96% # Class of committed instruction (Count)
system.cpu0.commit.committedInstType_0::SimdAes            0      0.00%     70.96% # Class of committed instruction (Count)
system.cpu0.commit.committedInstType_0::SimdAesMix            0      0.00%     70.96% # Class of committed instruction (Count)
system.cpu0.commit.committedInstType_0::SimdSha1Hash            0      0.00%     70.96% # Class of committed instruction (Count)
system.cpu0.commit.committedInstType_0::SimdSha1Hash2            0      0.00%     70.96% # Class of committed instruction (Count)
system.cpu0.commit.committedInstType_0::SimdSha256Hash            0      0.00%     70.96% # Class of committed instruction (Count)
system.cpu0.commit.committedInstType_0::SimdSha256Hash2            0      0.00%     70.96% # Class of committed instruction (Count)
system.cpu0.commit.committedInstType_0::SimdShaSigma2            0      0.00%     70.96% # Class of committed instruction (Count)
system.cpu0.commit.committedInstType_0::SimdShaSigma3            0      0.00%     70.96% # Class of committed instruction (Count)
system.cpu0.commit.committedInstType_0::SimdPredAlu            0      0.00%     70.96% # Class of committed instruction (Count)
system.cpu0.commit.committedInstType_0::MemRead      2109150      6.84%     77.80% # Class of committed instruction (Count)
system.cpu0.commit.committedInstType_0::MemWrite      1255095      4.07%     81.87% # Class of committed instruction (Count)
system.cpu0.commit.committedInstType_0::FloatMemRead      3613597     11.72%     93.59% # Class of committed instruction (Count)
system.cpu0.commit.committedInstType_0::FloatMemWrite      1975482      6.41%    100.00% # Class of committed instruction (Count)
system.cpu0.commit.committedInstType_0::IprAccess            0      0.00%    100.00% # Class of committed instruction (Count)
system.cpu0.commit.committedInstType_0::InstPrefetch            0      0.00%    100.00% # Class of committed instruction (Count)
system.cpu0.commit.committedInstType_0::total     30828972                       # Class of committed instruction (Count)
system.cpu0.commit.commitEligibleSamples      1940944                       # number cycles where commit BW limit reached (Cycle)
system.cpu0.dcache.demandHits::cpu0.data      7606281                       # number of demand (read+write) hits (Count)
system.cpu0.dcache.demandHits::total          7606281                       # number of demand (read+write) hits (Count)
system.cpu0.dcache.overallHits::cpu0.data      7606281                       # number of overall hits (Count)
system.cpu0.dcache.overallHits::total         7606281                       # number of overall hits (Count)
system.cpu0.dcache.demandMisses::cpu0.data       394687                       # number of demand (read+write) misses (Count)
system.cpu0.dcache.demandMisses::total         394687                       # number of demand (read+write) misses (Count)
system.cpu0.dcache.overallMisses::cpu0.data       394687                       # number of overall misses (Count)
system.cpu0.dcache.overallMisses::total        394687                       # number of overall misses (Count)
system.cpu0.dcache.demandMissLatency::cpu0.data  12846984845                       # number of demand (read+write) miss ticks (Tick)
system.cpu0.dcache.demandMissLatency::total  12846984845                       # number of demand (read+write) miss ticks (Tick)
system.cpu0.dcache.overallMissLatency::cpu0.data  12846984845                       # number of overall miss ticks (Tick)
system.cpu0.dcache.overallMissLatency::total  12846984845                       # number of overall miss ticks (Tick)
system.cpu0.dcache.demandAccesses::cpu0.data      8000968                       # number of demand (read+write) accesses (Count)
system.cpu0.dcache.demandAccesses::total      8000968                       # number of demand (read+write) accesses (Count)
system.cpu0.dcache.overallAccesses::cpu0.data      8000968                       # number of overall (read+write) accesses (Count)
system.cpu0.dcache.overallAccesses::total      8000968                       # number of overall (read+write) accesses (Count)
system.cpu0.dcache.demandMissRate::cpu0.data     0.049330                       # miss rate for demand accesses (Ratio)
system.cpu0.dcache.demandMissRate::total     0.049330                       # miss rate for demand accesses (Ratio)
system.cpu0.dcache.overallMissRate::cpu0.data     0.049330                       # miss rate for overall accesses (Ratio)
system.cpu0.dcache.overallMissRate::total     0.049330                       # miss rate for overall accesses (Ratio)
system.cpu0.dcache.demandAvgMissLatency::cpu0.data 32549.804896                       # average overall miss latency in ticks ((Tick/Count))
system.cpu0.dcache.demandAvgMissLatency::total 32549.804896                       # average overall miss latency in ticks ((Tick/Count))
system.cpu0.dcache.overallAvgMissLatency::cpu0.data 32549.804896                       # average overall miss latency ((Tick/Count))
system.cpu0.dcache.overallAvgMissLatency::total 32549.804896                       # average overall miss latency ((Tick/Count))
system.cpu0.dcache.blockedCycles::no_mshrs      1066995                       # number of cycles access was blocked (Cycle)
system.cpu0.dcache.blockedCycles::no_targets          430                       # number of cycles access was blocked (Cycle)
system.cpu0.dcache.blockedCauses::no_mshrs        39511                       # number of times access was blocked (Count)
system.cpu0.dcache.blockedCauses::no_targets            2                       # number of times access was blocked (Count)
system.cpu0.dcache.avgBlocked::no_mshrs     27.005011                       # average number of cycles each access was blocked ((Cycle/Count))
system.cpu0.dcache.avgBlocked::no_targets          215                       # average number of cycles each access was blocked ((Cycle/Count))
system.cpu0.dcache.writebacks::writebacks        93012                       # number of writebacks (Count)
system.cpu0.dcache.writebacks::total            93012                       # number of writebacks (Count)
system.cpu0.dcache.demandMshrHits::cpu0.data       285708                       # number of demand (read+write) MSHR hits (Count)
system.cpu0.dcache.demandMshrHits::total       285708                       # number of demand (read+write) MSHR hits (Count)
system.cpu0.dcache.overallMshrHits::cpu0.data       285708                       # number of overall MSHR hits (Count)
system.cpu0.dcache.overallMshrHits::total       285708                       # number of overall MSHR hits (Count)
system.cpu0.dcache.demandMshrMisses::cpu0.data       108979                       # number of demand (read+write) MSHR misses (Count)
system.cpu0.dcache.demandMshrMisses::total       108979                       # number of demand (read+write) MSHR misses (Count)
system.cpu0.dcache.overallMshrMisses::cpu0.data       108979                       # number of overall MSHR misses (Count)
system.cpu0.dcache.overallMshrMisses::total       108979                       # number of overall MSHR misses (Count)
system.cpu0.dcache.demandMshrMissLatency::cpu0.data   4649205064                       # number of demand (read+write) MSHR miss ticks (Tick)
system.cpu0.dcache.demandMshrMissLatency::total   4649205064                       # number of demand (read+write) MSHR miss ticks (Tick)
system.cpu0.dcache.overallMshrMissLatency::cpu0.data   4649205064                       # number of overall MSHR miss ticks (Tick)
system.cpu0.dcache.overallMshrMissLatency::total   4649205064                       # number of overall MSHR miss ticks (Tick)
system.cpu0.dcache.demandMshrMissRate::cpu0.data     0.013621                       # mshr miss ratio for demand accesses (Ratio)
system.cpu0.dcache.demandMshrMissRate::total     0.013621                       # mshr miss ratio for demand accesses (Ratio)
system.cpu0.dcache.overallMshrMissRate::cpu0.data     0.013621                       # mshr miss ratio for overall accesses (Ratio)
system.cpu0.dcache.overallMshrMissRate::total     0.013621                       # mshr miss ratio for overall accesses (Ratio)
system.cpu0.dcache.demandAvgMshrMissLatency::cpu0.data 42661.476651                       # average overall mshr miss latency ((Tick/Count))
system.cpu0.dcache.demandAvgMshrMissLatency::total 42661.476651                       # average overall mshr miss latency ((Tick/Count))
system.cpu0.dcache.overallAvgMshrMissLatency::cpu0.data 42661.476651                       # average overall mshr miss latency ((Tick/Count))
system.cpu0.dcache.overallAvgMshrMissLatency::total 42661.476651                       # average overall mshr miss latency ((Tick/Count))
system.cpu0.dcache.replacements                108399                       # number of replacements (Count)
system.cpu0.dcache.LoadLockedReq.hits::cpu0.data           68                       # number of LoadLockedReq hits (Count)
system.cpu0.dcache.LoadLockedReq.hits::total           68                       # number of LoadLockedReq hits (Count)
system.cpu0.dcache.LoadLockedReq.misses::cpu0.data           28                       # number of LoadLockedReq misses (Count)
system.cpu0.dcache.LoadLockedReq.misses::total           28                       # number of LoadLockedReq misses (Count)
system.cpu0.dcache.LoadLockedReq.missLatency::cpu0.data       612054                       # number of LoadLockedReq miss ticks (Tick)
system.cpu0.dcache.LoadLockedReq.missLatency::total       612054                       # number of LoadLockedReq miss ticks (Tick)
system.cpu0.dcache.LoadLockedReq.accesses::cpu0.data           96                       # number of LoadLockedReq accesses(hits+misses) (Count)
system.cpu0.dcache.LoadLockedReq.accesses::total           96                       # number of LoadLockedReq accesses(hits+misses) (Count)
system.cpu0.dcache.LoadLockedReq.missRate::cpu0.data     0.291667                       # miss rate for LoadLockedReq accesses (Ratio)
system.cpu0.dcache.LoadLockedReq.missRate::total     0.291667                       # miss rate for LoadLockedReq accesses (Ratio)
system.cpu0.dcache.LoadLockedReq.avgMissLatency::cpu0.data 21859.071429                       # average LoadLockedReq miss latency ((Tick/Count))
system.cpu0.dcache.LoadLockedReq.avgMissLatency::total 21859.071429                       # average LoadLockedReq miss latency ((Tick/Count))
system.cpu0.dcache.LoadLockedReq.mshrHits::cpu0.data           10                       # number of LoadLockedReq MSHR hits (Count)
system.cpu0.dcache.LoadLockedReq.mshrHits::total           10                       # number of LoadLockedReq MSHR hits (Count)
system.cpu0.dcache.LoadLockedReq.mshrMisses::cpu0.data           18                       # number of LoadLockedReq MSHR misses (Count)
system.cpu0.dcache.LoadLockedReq.mshrMisses::total           18                       # number of LoadLockedReq MSHR misses (Count)
system.cpu0.dcache.LoadLockedReq.mshrMissLatency::cpu0.data       479853                       # number of LoadLockedReq MSHR miss ticks (Tick)
system.cpu0.dcache.LoadLockedReq.mshrMissLatency::total       479853                       # number of LoadLockedReq MSHR miss ticks (Tick)
system.cpu0.dcache.LoadLockedReq.mshrMissRate::cpu0.data     0.187500                       # mshr miss rate for LoadLockedReq accesses (Ratio)
system.cpu0.dcache.LoadLockedReq.mshrMissRate::total     0.187500                       # mshr miss rate for LoadLockedReq accesses (Ratio)
system.cpu0.dcache.LoadLockedReq.avgMshrMissLatency::cpu0.data 26658.500000                       # average LoadLockedReq mshr miss latency ((Tick/Count))
system.cpu0.dcache.LoadLockedReq.avgMshrMissLatency::total 26658.500000                       # average LoadLockedReq mshr miss latency ((Tick/Count))
system.cpu0.dcache.ReadReq.hits::cpu0.data      4526462                       # number of ReadReq hits (Count)
system.cpu0.dcache.ReadReq.hits::total        4526462                       # number of ReadReq hits (Count)
system.cpu0.dcache.ReadReq.misses::cpu0.data       244010                       # number of ReadReq misses (Count)
system.cpu0.dcache.ReadReq.misses::total       244010                       # number of ReadReq misses (Count)
system.cpu0.dcache.ReadReq.missLatency::cpu0.data   2883353094                       # number of ReadReq miss ticks (Tick)
system.cpu0.dcache.ReadReq.missLatency::total   2883353094                       # number of ReadReq miss ticks (Tick)
system.cpu0.dcache.ReadReq.accesses::cpu0.data      4770472                       # number of ReadReq accesses(hits+misses) (Count)
system.cpu0.dcache.ReadReq.accesses::total      4770472                       # number of ReadReq accesses(hits+misses) (Count)
system.cpu0.dcache.ReadReq.missRate::cpu0.data     0.051150                       # miss rate for ReadReq accesses (Ratio)
system.cpu0.dcache.ReadReq.missRate::total     0.051150                       # miss rate for ReadReq accesses (Ratio)
system.cpu0.dcache.ReadReq.avgMissLatency::cpu0.data 11816.536593                       # average ReadReq miss latency ((Tick/Count))
system.cpu0.dcache.ReadReq.avgMissLatency::total 11816.536593                       # average ReadReq miss latency ((Tick/Count))
system.cpu0.dcache.ReadReq.mshrHits::cpu0.data       193456                       # number of ReadReq MSHR hits (Count)
system.cpu0.dcache.ReadReq.mshrHits::total       193456                       # number of ReadReq MSHR hits (Count)
system.cpu0.dcache.ReadReq.mshrMisses::cpu0.data        50554                       # number of ReadReq MSHR misses (Count)
system.cpu0.dcache.ReadReq.mshrMisses::total        50554                       # number of ReadReq MSHR misses (Count)
system.cpu0.dcache.ReadReq.mshrMissLatency::cpu0.data    635839524                       # number of ReadReq MSHR miss ticks (Tick)
system.cpu0.dcache.ReadReq.mshrMissLatency::total    635839524                       # number of ReadReq MSHR miss ticks (Tick)
system.cpu0.dcache.ReadReq.mshrMissRate::cpu0.data     0.010597                       # mshr miss rate for ReadReq accesses (Ratio)
system.cpu0.dcache.ReadReq.mshrMissRate::total     0.010597                       # mshr miss rate for ReadReq accesses (Ratio)
system.cpu0.dcache.ReadReq.avgMshrMissLatency::cpu0.data 12577.432528                       # average ReadReq mshr miss latency ((Tick/Count))
system.cpu0.dcache.ReadReq.avgMshrMissLatency::total 12577.432528                       # average ReadReq mshr miss latency ((Tick/Count))
system.cpu0.dcache.StoreCondReq.hits::cpu0.data           68                       # number of StoreCondReq hits (Count)
system.cpu0.dcache.StoreCondReq.hits::total           68                       # number of StoreCondReq hits (Count)
system.cpu0.dcache.StoreCondReq.misses::cpu0.data           13                       # number of StoreCondReq misses (Count)
system.cpu0.dcache.StoreCondReq.misses::total           13                       # number of StoreCondReq misses (Count)
system.cpu0.dcache.StoreCondReq.missLatency::cpu0.data       177156                       # number of StoreCondReq miss ticks (Tick)
system.cpu0.dcache.StoreCondReq.missLatency::total       177156                       # number of StoreCondReq miss ticks (Tick)
system.cpu0.dcache.StoreCondReq.accesses::cpu0.data           81                       # number of StoreCondReq accesses(hits+misses) (Count)
system.cpu0.dcache.StoreCondReq.accesses::total           81                       # number of StoreCondReq accesses(hits+misses) (Count)
system.cpu0.dcache.StoreCondReq.missRate::cpu0.data     0.160494                       # miss rate for StoreCondReq accesses (Ratio)
system.cpu0.dcache.StoreCondReq.missRate::total     0.160494                       # miss rate for StoreCondReq accesses (Ratio)
system.cpu0.dcache.StoreCondReq.avgMissLatency::cpu0.data 13627.384615                       # average StoreCondReq miss latency ((Tick/Count))
system.cpu0.dcache.StoreCondReq.avgMissLatency::total 13627.384615                       # average StoreCondReq miss latency ((Tick/Count))
system.cpu0.dcache.StoreCondReq.mshrMisses::cpu0.data           13                       # number of StoreCondReq MSHR misses (Count)
system.cpu0.dcache.StoreCondReq.mshrMisses::total           13                       # number of StoreCondReq MSHR misses (Count)
system.cpu0.dcache.StoreCondReq.mshrMissLatency::cpu0.data       168498                       # number of StoreCondReq MSHR miss ticks (Tick)
system.cpu0.dcache.StoreCondReq.mshrMissLatency::total       168498                       # number of StoreCondReq MSHR miss ticks (Tick)
system.cpu0.dcache.StoreCondReq.mshrMissRate::cpu0.data     0.160494                       # mshr miss rate for StoreCondReq accesses (Ratio)
system.cpu0.dcache.StoreCondReq.mshrMissRate::total     0.160494                       # mshr miss rate for StoreCondReq accesses (Ratio)
system.cpu0.dcache.StoreCondReq.avgMshrMissLatency::cpu0.data 12961.384615                       # average StoreCondReq mshr miss latency ((Tick/Count))
system.cpu0.dcache.StoreCondReq.avgMshrMissLatency::total 12961.384615                       # average StoreCondReq mshr miss latency ((Tick/Count))
system.cpu0.dcache.SwapReq.hits::cpu0.data          111                       # number of SwapReq hits (Count)
system.cpu0.dcache.SwapReq.hits::total            111                       # number of SwapReq hits (Count)
system.cpu0.dcache.SwapReq.misses::cpu0.data           17                       # number of SwapReq misses (Count)
system.cpu0.dcache.SwapReq.misses::total           17                       # number of SwapReq misses (Count)
system.cpu0.dcache.SwapReq.missLatency::cpu0.data       853146                       # number of SwapReq miss ticks (Tick)
system.cpu0.dcache.SwapReq.missLatency::total       853146                       # number of SwapReq miss ticks (Tick)
system.cpu0.dcache.SwapReq.accesses::cpu0.data          128                       # number of SwapReq accesses(hits+misses) (Count)
system.cpu0.dcache.SwapReq.accesses::total          128                       # number of SwapReq accesses(hits+misses) (Count)
system.cpu0.dcache.SwapReq.missRate::cpu0.data     0.132812                       # miss rate for SwapReq accesses (Ratio)
system.cpu0.dcache.SwapReq.missRate::total     0.132812                       # miss rate for SwapReq accesses (Ratio)
system.cpu0.dcache.SwapReq.avgMissLatency::cpu0.data 50185.058824                       # average SwapReq miss latency ((Tick/Count))
system.cpu0.dcache.SwapReq.avgMissLatency::total 50185.058824                       # average SwapReq miss latency ((Tick/Count))
system.cpu0.dcache.SwapReq.mshrHits::cpu0.data            6                       # number of SwapReq MSHR hits (Count)
system.cpu0.dcache.SwapReq.mshrHits::total            6                       # number of SwapReq MSHR hits (Count)
system.cpu0.dcache.SwapReq.mshrMisses::cpu0.data           11                       # number of SwapReq MSHR misses (Count)
system.cpu0.dcache.SwapReq.mshrMisses::total           11                       # number of SwapReq MSHR misses (Count)
system.cpu0.dcache.SwapReq.mshrMissLatency::cpu0.data       841824                       # number of SwapReq MSHR miss ticks (Tick)
system.cpu0.dcache.SwapReq.mshrMissLatency::total       841824                       # number of SwapReq MSHR miss ticks (Tick)
system.cpu0.dcache.SwapReq.mshrMissRate::cpu0.data     0.085938                       # mshr miss rate for SwapReq accesses (Ratio)
system.cpu0.dcache.SwapReq.mshrMissRate::total     0.085938                       # mshr miss rate for SwapReq accesses (Ratio)
system.cpu0.dcache.SwapReq.avgMshrMissLatency::cpu0.data 76529.454545                       # average SwapReq mshr miss latency ((Tick/Count))
system.cpu0.dcache.SwapReq.avgMshrMissLatency::total 76529.454545                       # average SwapReq mshr miss latency ((Tick/Count))
system.cpu0.dcache.WriteReq.hits::cpu0.data      3079819                       # number of WriteReq hits (Count)
system.cpu0.dcache.WriteReq.hits::total       3079819                       # number of WriteReq hits (Count)
system.cpu0.dcache.WriteReq.misses::cpu0.data       150677                       # number of WriteReq misses (Count)
system.cpu0.dcache.WriteReq.misses::total       150677                       # number of WriteReq misses (Count)
system.cpu0.dcache.WriteReq.missLatency::cpu0.data   9963631751                       # number of WriteReq miss ticks (Tick)
system.cpu0.dcache.WriteReq.missLatency::total   9963631751                       # number of WriteReq miss ticks (Tick)
system.cpu0.dcache.WriteReq.accesses::cpu0.data      3230496                       # number of WriteReq accesses(hits+misses) (Count)
system.cpu0.dcache.WriteReq.accesses::total      3230496                       # number of WriteReq accesses(hits+misses) (Count)
system.cpu0.dcache.WriteReq.missRate::cpu0.data     0.046642                       # miss rate for WriteReq accesses (Ratio)
system.cpu0.dcache.WriteReq.missRate::total     0.046642                       # miss rate for WriteReq accesses (Ratio)
system.cpu0.dcache.WriteReq.avgMissLatency::cpu0.data 66125.764058                       # average WriteReq miss latency ((Tick/Count))
system.cpu0.dcache.WriteReq.avgMissLatency::total 66125.764058                       # average WriteReq miss latency ((Tick/Count))
system.cpu0.dcache.WriteReq.mshrHits::cpu0.data        92252                       # number of WriteReq MSHR hits (Count)
system.cpu0.dcache.WriteReq.mshrHits::total        92252                       # number of WriteReq MSHR hits (Count)
system.cpu0.dcache.WriteReq.mshrMisses::cpu0.data        58425                       # number of WriteReq MSHR misses (Count)
system.cpu0.dcache.WriteReq.mshrMisses::total        58425                       # number of WriteReq MSHR misses (Count)
system.cpu0.dcache.WriteReq.mshrMissLatency::cpu0.data   4013365540                       # number of WriteReq MSHR miss ticks (Tick)
system.cpu0.dcache.WriteReq.mshrMissLatency::total   4013365540                       # number of WriteReq MSHR miss ticks (Tick)
system.cpu0.dcache.WriteReq.mshrMissRate::cpu0.data     0.018085                       # mshr miss rate for WriteReq accesses (Ratio)
system.cpu0.dcache.WriteReq.mshrMissRate::total     0.018085                       # mshr miss rate for WriteReq accesses (Ratio)
system.cpu0.dcache.WriteReq.avgMshrMissLatency::cpu0.data 68692.606590                       # average WriteReq mshr miss latency ((Tick/Count))
system.cpu0.dcache.WriteReq.avgMshrMissLatency::total 68692.606590                       # average WriteReq mshr miss latency ((Tick/Count))
system.cpu0.dcache.power_state.pwrStateResidencyTicks::UNDEFINED   7320949722                       # Cumulative time (in ticks) in various power states (Tick)
system.cpu0.dcache.tags.tagsInUse          509.800458                       # Average ticks per tags in use ((Tick/Count))
system.cpu0.dcache.tags.totalRefs             7715600                       # Total number of references to valid blocks. (Count)
system.cpu0.dcache.tags.sampledRefs            108943                       # Sample count of references to valid blocks. (Count)
system.cpu0.dcache.tags.avgRefs             70.822357                       # Average number of references to valid blocks. ((Count/Count))
system.cpu0.dcache.tags.warmupTick             274059                       # The tick when the warmup percentage was hit. (Tick)
system.cpu0.dcache.tags.occupancies::cpu0.data   509.800458                       # Average occupied blocks per tick, per requestor ((Count/Tick))
system.cpu0.dcache.tags.avgOccs::cpu0.data     0.995704                       # Average percentage of cache occupancy ((Ratio/Tick))
system.cpu0.dcache.tags.avgOccs::total       0.995704                       # Average percentage of cache occupancy ((Ratio/Tick))
system.cpu0.dcache.tags.occupanciesTaskId::1024          512                       # Occupied blocks per task id (Count)
system.cpu0.dcache.tags.ageTaskId_1024::0           69                       # Occupied blocks per task id, per block age (Count)
system.cpu0.dcache.tags.ageTaskId_1024::1          443                       # Occupied blocks per task id, per block age (Count)
system.cpu0.dcache.tags.ratioOccsTaskId::1024            1                       # Ratio of occupied blocks and all blocks, per task id (Ratio)
system.cpu0.dcache.tags.tagAccesses          64119127                       # Number of tag accesses (Count)
system.cpu0.dcache.tags.dataAccesses         64119127                       # Number of data accesses (Count)
system.cpu0.dcache.tags.indexing_policy.tagAccessHist::samples      8367172                       # Histogram of set associative cache access per tag (Count)
system.cpu0.dcache.tags.indexing_policy.tagAccessHist::mean    34.230399                       # Histogram of set associative cache access per tag (Count)
system.cpu0.dcache.tags.indexing_policy.tagAccessHist::gmean            0                       # Histogram of set associative cache access per tag (Count)
system.cpu0.dcache.tags.indexing_policy.tagAccessHist::stdev    16.051413                       # Histogram of set associative cache access per tag (Count)
system.cpu0.dcache.tags.indexing_policy.tagAccessHist::0        63918      0.76%      0.76% # Histogram of set associative cache access per tag (Count)
system.cpu0.dcache.tags.indexing_policy.tagAccessHist::1        63661      0.76%      1.52% # Histogram of set associative cache access per tag (Count)
system.cpu0.dcache.tags.indexing_policy.tagAccessHist::2        63646      0.76%      2.29% # Histogram of set associative cache access per tag (Count)
system.cpu0.dcache.tags.indexing_policy.tagAccessHist::3       128109      1.53%      3.82% # Histogram of set associative cache access per tag (Count)
system.cpu0.dcache.tags.indexing_policy.tagAccessHist::4       159824      1.91%      5.73% # Histogram of set associative cache access per tag (Count)
system.cpu0.dcache.tags.indexing_policy.tagAccessHist::5       110616      1.32%      7.05% # Histogram of set associative cache access per tag (Count)
system.cpu0.dcache.tags.indexing_policy.tagAccessHist::6        94361      1.13%      8.18% # Histogram of set associative cache access per tag (Count)
system.cpu0.dcache.tags.indexing_policy.tagAccessHist::7        86451      1.03%      9.21% # Histogram of set associative cache access per tag (Count)
system.cpu0.dcache.tags.indexing_policy.tagAccessHist::8        78072      0.93%     10.14% # Histogram of set associative cache access per tag (Count)
system.cpu0.dcache.tags.indexing_policy.tagAccessHist::9        77757      0.93%     11.07% # Histogram of set associative cache access per tag (Count)
system.cpu0.dcache.tags.indexing_policy.tagAccessHist::10        77686      0.93%     12.00% # Histogram of set associative cache access per tag (Count)
system.cpu0.dcache.tags.indexing_policy.tagAccessHist::11        73430      0.88%     12.88% # Histogram of set associative cache access per tag (Count)
system.cpu0.dcache.tags.indexing_policy.tagAccessHist::12        69315      0.83%     13.71% # Histogram of set associative cache access per tag (Count)
system.cpu0.dcache.tags.indexing_policy.tagAccessHist::13        69191      0.83%     14.53% # Histogram of set associative cache access per tag (Count)
system.cpu0.dcache.tags.indexing_policy.tagAccessHist::14        69130      0.83%     15.36% # Histogram of set associative cache access per tag (Count)
system.cpu0.dcache.tags.indexing_policy.tagAccessHist::15        69230      0.83%     16.19% # Histogram of set associative cache access per tag (Count)
system.cpu0.dcache.tags.indexing_policy.tagAccessHist::16        69027      0.82%     17.01% # Histogram of set associative cache access per tag (Count)
system.cpu0.dcache.tags.indexing_policy.tagAccessHist::17        69139      0.83%     17.84% # Histogram of set associative cache access per tag (Count)
system.cpu0.dcache.tags.indexing_policy.tagAccessHist::18        69279      0.83%     18.67% # Histogram of set associative cache access per tag (Count)
system.cpu0.dcache.tags.indexing_policy.tagAccessHist::19        67190      0.80%     19.47% # Histogram of set associative cache access per tag (Count)
system.cpu0.dcache.tags.indexing_policy.tagAccessHist::20        65301      0.78%     20.25% # Histogram of set associative cache access per tag (Count)
system.cpu0.dcache.tags.indexing_policy.tagAccessHist::21        65378      0.78%     21.03% # Histogram of set associative cache access per tag (Count)
system.cpu0.dcache.tags.indexing_policy.tagAccessHist::22        65472      0.78%     21.81% # Histogram of set associative cache access per tag (Count)
system.cpu0.dcache.tags.indexing_policy.tagAccessHist::23        65245      0.78%     22.59% # Histogram of set associative cache access per tag (Count)
system.cpu0.dcache.tags.indexing_policy.tagAccessHist::24        65061      0.78%     23.37% # Histogram of set associative cache access per tag (Count)
system.cpu0.dcache.tags.indexing_policy.tagAccessHist::25        65195      0.78%     24.15% # Histogram of set associative cache access per tag (Count)
system.cpu0.dcache.tags.indexing_policy.tagAccessHist::26        65414      0.78%     24.93% # Histogram of set associative cache access per tag (Count)
system.cpu0.dcache.tags.indexing_policy.tagAccessHist::27        65632      0.78%     25.72% # Histogram of set associative cache access per tag (Count)
system.cpu0.dcache.tags.indexing_policy.tagAccessHist::28      1247538     14.91%     40.63% # Histogram of set associative cache access per tag (Count)
system.cpu0.dcache.tags.indexing_policy.tagAccessHist::29        65535      0.78%     41.41% # Histogram of set associative cache access per tag (Count)
system.cpu0.dcache.tags.indexing_policy.tagAccessHist::30        65331      0.78%     42.19% # Histogram of set associative cache access per tag (Count)
system.cpu0.dcache.tags.indexing_policy.tagAccessHist::31        65170      0.78%     42.97% # Histogram of set associative cache access per tag (Count)
system.cpu0.dcache.tags.indexing_policy.tagAccessHist::32        64754      0.77%     43.74% # Histogram of set associative cache access per tag (Count)
system.cpu0.dcache.tags.indexing_policy.tagAccessHist::33        64539      0.77%     44.51% # Histogram of set associative cache access per tag (Count)
system.cpu0.dcache.tags.indexing_policy.tagAccessHist::34        64816      0.77%     45.29% # Histogram of set associative cache access per tag (Count)
system.cpu0.dcache.tags.indexing_policy.tagAccessHist::35        63735      0.76%     46.05% # Histogram of set associative cache access per tag (Count)
system.cpu0.dcache.tags.indexing_policy.tagAccessHist::36       359962      4.30%     50.35% # Histogram of set associative cache access per tag (Count)
system.cpu0.dcache.tags.indexing_policy.tagAccessHist::37       706326      8.44%     58.79% # Histogram of set associative cache access per tag (Count)
system.cpu0.dcache.tags.indexing_policy.tagAccessHist::38       205006      2.45%     61.24% # Histogram of set associative cache access per tag (Count)
system.cpu0.dcache.tags.indexing_policy.tagAccessHist::39        62352      0.75%     61.99% # Histogram of set associative cache access per tag (Count)
system.cpu0.dcache.tags.indexing_policy.tagAccessHist::40        60960      0.73%     62.72% # Histogram of set associative cache access per tag (Count)
system.cpu0.dcache.tags.indexing_policy.tagAccessHist::41        60739      0.73%     63.44% # Histogram of set associative cache access per tag (Count)
system.cpu0.dcache.tags.indexing_policy.tagAccessHist::42        61199      0.73%     64.18% # Histogram of set associative cache access per tag (Count)
system.cpu0.dcache.tags.indexing_policy.tagAccessHist::43        60871      0.73%     64.90% # Histogram of set associative cache access per tag (Count)
system.cpu0.dcache.tags.indexing_policy.tagAccessHist::44        60638      0.72%     65.63% # Histogram of set associative cache access per tag (Count)
system.cpu0.dcache.tags.indexing_policy.tagAccessHist::45        64475      0.77%     66.40% # Histogram of set associative cache access per tag (Count)
system.cpu0.dcache.tags.indexing_policy.tagAccessHist::46        60153      0.72%     67.12% # Histogram of set associative cache access per tag (Count)
system.cpu0.dcache.tags.indexing_policy.tagAccessHist::47        60129      0.72%     67.84% # Histogram of set associative cache access per tag (Count)
system.cpu0.dcache.tags.indexing_policy.tagAccessHist::48        59883      0.72%     68.55% # Histogram of set associative cache access per tag (Count)
system.cpu0.dcache.tags.indexing_policy.tagAccessHist::49       472347      5.65%     74.20% # Histogram of set associative cache access per tag (Count)
system.cpu0.dcache.tags.indexing_policy.tagAccessHist::50      1301589     15.56%     89.75% # Histogram of set associative cache access per tag (Count)
system.cpu0.dcache.tags.indexing_policy.tagAccessHist::51       124972      1.49%     91.25% # Histogram of set associative cache access per tag (Count)
system.cpu0.dcache.tags.indexing_policy.tagAccessHist::52        58027      0.69%     91.94% # Histogram of set associative cache access per tag (Count)
system.cpu0.dcache.tags.indexing_policy.tagAccessHist::53        58009      0.69%     92.63% # Histogram of set associative cache access per tag (Count)
system.cpu0.dcache.tags.indexing_policy.tagAccessHist::54        57981      0.69%     93.33% # Histogram of set associative cache access per tag (Count)
system.cpu0.dcache.tags.indexing_policy.tagAccessHist::55        57820      0.69%     94.02% # Histogram of set associative cache access per tag (Count)
system.cpu0.dcache.tags.indexing_policy.tagAccessHist::56        57839      0.69%     94.71% # Histogram of set associative cache access per tag (Count)
system.cpu0.dcache.tags.indexing_policy.tagAccessHist::57        58257      0.70%     95.40% # Histogram of set associative cache access per tag (Count)
system.cpu0.dcache.tags.indexing_policy.tagAccessHist::58        63163      0.75%     96.16% # Histogram of set associative cache access per tag (Count)
system.cpu0.dcache.tags.indexing_policy.tagAccessHist::59        64982      0.78%     96.94% # Histogram of set associative cache access per tag (Count)
system.cpu0.dcache.tags.indexing_policy.tagAccessHist::60        64440      0.77%     97.71% # Histogram of set associative cache access per tag (Count)
system.cpu0.dcache.tags.indexing_policy.tagAccessHist::61        64046      0.77%     98.47% # Histogram of set associative cache access per tag (Count)
system.cpu0.dcache.tags.indexing_policy.tagAccessHist::62        64010      0.77%     99.24% # Histogram of set associative cache access per tag (Count)
system.cpu0.dcache.tags.indexing_policy.tagAccessHist::63        63849      0.76%    100.00% # Histogram of set associative cache access per tag (Count)
system.cpu0.dcache.tags.indexing_policy.tagAccessHist::total      8367172                       # Histogram of set associative cache access per tag (Count)
system.cpu0.dcache.tags.power_state.pwrStateResidencyTicks::UNDEFINED   7320949722                       # Cumulative time (in ticks) in various power states (Tick)
system.cpu0.decode.idleCycles                 3132513                       # Number of cycles decode is idle (Cycle)
system.cpu0.decode.blockedCycles             12920143                       # Number of cycles decode is blocked (Cycle)
system.cpu0.decode.runCycles                  5360645                       # Number of cycles decode is running (Cycle)
system.cpu0.decode.unblockCycles               302209                       # Number of cycles decode is unblocking (Cycle)
system.cpu0.decode.squashCycles                 21663                       # Number of cycles decode is squashing (Cycle)
system.cpu0.decode.branchResolved             1894469                       # Number of times decode resolved a branch (Count)
system.cpu0.decode.branchMispred                  534                       # Number of times decode detected a branch misprediction (Count)
system.cpu0.decode.decodedInsts              31411064                       # Number of instructions handled by decode (Count)
system.cpu0.decode.squashedInsts                 2250                       # Number of squashed instructions handled by decode (Count)
system.cpu0.dtb_walker_cache.blockedCycles::no_mshrs            0                       # number of cycles access was blocked (Cycle)
system.cpu0.dtb_walker_cache.blockedCycles::no_targets            0                       # number of cycles access was blocked (Cycle)
system.cpu0.dtb_walker_cache.blockedCauses::no_mshrs            0                       # number of times access was blocked (Count)
system.cpu0.dtb_walker_cache.blockedCauses::no_targets            0                       # number of times access was blocked (Count)
system.cpu0.dtb_walker_cache.avgBlocked::no_mshrs          nan                       # average number of cycles each access was blocked ((Cycle/Count))
system.cpu0.dtb_walker_cache.avgBlocked::no_targets          nan                       # average number of cycles each access was blocked ((Cycle/Count))
system.cpu0.dtb_walker_cache.replacements            0                       # number of replacements (Count)
system.cpu0.dtb_walker_cache.power_state.pwrStateResidencyTicks::UNDEFINED   7320949722                       # Cumulative time (in ticks) in various power states (Tick)
system.cpu0.dtb_walker_cache.tags.tagsInUse            0                       # Average ticks per tags in use ((Tick/Count))
system.cpu0.dtb_walker_cache.tags.totalRefs            0                       # Total number of references to valid blocks. (Count)
system.cpu0.dtb_walker_cache.tags.sampledRefs            0                       # Sample count of references to valid blocks. (Count)
system.cpu0.dtb_walker_cache.tags.avgRefs          nan                       # Average number of references to valid blocks. ((Count/Count))
system.cpu0.dtb_walker_cache.tags.warmupTick            0                       # The tick when the warmup percentage was hit. (Tick)
system.cpu0.dtb_walker_cache.tags.tagAccesses            0                       # Number of tag accesses (Count)
system.cpu0.dtb_walker_cache.tags.dataAccesses            0                       # Number of data accesses (Count)
system.cpu0.dtb_walker_cache.tags.indexing_policy.tagAccessHist::samples         7723                       # Histogram of set associative cache access per tag (Count)
system.cpu0.dtb_walker_cache.tags.indexing_policy.tagAccessHist::mean     3.517157                       # Histogram of set associative cache access per tag (Count)
system.cpu0.dtb_walker_cache.tags.indexing_policy.tagAccessHist::gmean            0                       # Histogram of set associative cache access per tag (Count)
system.cpu0.dtb_walker_cache.tags.indexing_policy.tagAccessHist::stdev     2.294450                       # Histogram of set associative cache access per tag (Count)
system.cpu0.dtb_walker_cache.tags.indexing_policy.tagAccessHist::0          960     12.43%     12.43% # Histogram of set associative cache access per tag (Count)
system.cpu0.dtb_walker_cache.tags.indexing_policy.tagAccessHist::1          957     12.39%     24.82% # Histogram of set associative cache access per tag (Count)
system.cpu0.dtb_walker_cache.tags.indexing_policy.tagAccessHist::2          959     12.42%     37.24% # Histogram of set associative cache access per tag (Count)
system.cpu0.dtb_walker_cache.tags.indexing_policy.tagAccessHist::3          959     12.42%     49.66% # Histogram of set associative cache access per tag (Count)
system.cpu0.dtb_walker_cache.tags.indexing_policy.tagAccessHist::4          959     12.42%     62.07% # Histogram of set associative cache access per tag (Count)
system.cpu0.dtb_walker_cache.tags.indexing_policy.tagAccessHist::5          982     12.72%     74.79% # Histogram of set associative cache access per tag (Count)
system.cpu0.dtb_walker_cache.tags.indexing_policy.tagAccessHist::6          964     12.48%     87.27% # Histogram of set associative cache access per tag (Count)
system.cpu0.dtb_walker_cache.tags.indexing_policy.tagAccessHist::7          983     12.73%    100.00% # Histogram of set associative cache access per tag (Count)
system.cpu0.dtb_walker_cache.tags.indexing_policy.tagAccessHist::total         7723                       # Histogram of set associative cache access per tag (Count)
system.cpu0.dtb_walker_cache.tags.power_state.pwrStateResidencyTicks::UNDEFINED   7320949722                       # Cumulative time (in ticks) in various power states (Tick)
system.cpu0.fetch.icacheStallCycles           3679360                       # Number of cycles fetch is stalled on an Icache miss (Cycle)
system.cpu0.fetch.insts                      31541631                       # Number of instructions fetch has processed (Count)
system.cpu0.fetch.branches                    3350761                       # Number of branches that fetch encountered (Count)
system.cpu0.fetch.predictedBranches           2377215                       # Number of branches that fetch has predicted taken (Count)
system.cpu0.fetch.cycles                     18035458                       # Number of cycles fetch has run and was not squashing or blocked (Cycle)
system.cpu0.fetch.squashCycles                  44362                       # Number of cycles fetch has spent squashing (Cycle)
system.cpu0.fetch.miscStallCycles                  89                       # Number of cycles fetch has spent waiting on interrupts, or bad addresses, or out of MSHRs (Cycle)
system.cpu0.fetch.pendingTrapStallCycles           11                       # Number of stall cycles due to pending traps (Cycle)
system.cpu0.fetch.icacheWaitRetryStallCycles           74                       # Number of stall cycles due to full MSHR (Cycle)
system.cpu0.fetch.cacheLines                  3652655                       # Number of cache lines fetched (Count)
system.cpu0.fetch.icacheSquashes                13037                       # Number of outstanding Icache misses that were squashed (Count)
system.cpu0.fetch.nisnDist::samples          21737173                       # Number of instructions fetched each cycle (Total) (Count)
system.cpu0.fetch.nisnDist::mean             1.451057                       # Number of instructions fetched each cycle (Total) (Count)
system.cpu0.fetch.nisnDist::stdev            2.718836                       # Number of instructions fetched each cycle (Total) (Count)
system.cpu0.fetch.nisnDist::underflows              0      0.00%      0.00% # Number of instructions fetched each cycle (Total) (Count)
system.cpu0.fetch.nisnDist::0                15607366     71.80%     71.80% # Number of instructions fetched each cycle (Total) (Count)
system.cpu0.fetch.nisnDist::1                  555835      2.56%     74.36% # Number of instructions fetched each cycle (Total) (Count)
system.cpu0.fetch.nisnDist::2                 1017949      4.68%     79.04% # Number of instructions fetched each cycle (Total) (Count)
[...]
system.monitor.ittReqReq::65001-70000             281      0.31%     62.31% # Request-to-request inter transaction time (Tick)
system.monitor.ittReqReq::70001-75000             424      0.46%     62.77% # Request-to-request inter transaction time (Tick)
system.monitor.ittReqReq::75001-80000             148      0.16%     62.93% # Request-to-request inter transaction time (Tick)
system.monitor.ittReqReq::80001-85000             153      0.17%     63.10% # Request-to-request inter transaction time (Tick)
system.monitor.ittReqReq::85001-90000             302      0.33%     63.43% # Request-to-request inter transaction time (Tick)
system.monitor.ittReqReq::90001-95000             131      0.14%     63.57% # Request-to-request inter transaction time (Tick)
system.monitor.ittReqReq::95001-100000             32      0.03%     63.61% # Request-to-request inter transaction time (Tick)
system.monitor.ittReqReq::overflows             33404     36.39%    100.00% # Request-to-request inter transaction time (Tick)
system.monitor.ittReqReq::min_value               333                       # Request-to-request inter transaction time (Tick)
system.monitor.ittReqReq::max_value         676167489                       # Request-to-request inter transaction time (Tick)
system.monitor.ittReqReq::total                 91789                       # Request-to-request inter transaction time (Tick)
system.monitor.outstandingReadsHist::samples            7                       # Outstanding read transactions (Count)
system.monitor.outstandingReadsHist::mean     0.428571                       # Outstanding read transactions (Count)
system.monitor.outstandingReadsHist::gmean            0                       # Outstanding read transactions (Count)
system.monitor.outstandingReadsHist::stdev     0.534522                       # Outstanding read transactions (Count)
system.monitor.outstandingReadsHist::0              4     57.14%     57.14% # Outstanding read transactions (Count)
system.monitor.outstandingReadsHist::1              3     42.86%    100.00% # Outstanding read transactions (Count)
system.monitor.outstandingReadsHist::2              0      0.00%    100.00% # Outstanding read transactions (Count)
system.monitor.outstandingReadsHist::3              0      0.00%    100.00% # Outstanding read transactions (Count)
system.monitor.outstandingReadsHist::4              0      0.00%    100.00% # Outstanding read transactions (Count)
system.monitor.outstandingReadsHist::5              0      0.00%    100.00% # Outstanding read transactions (Count)
system.monitor.outstandingReadsHist::6              0      0.00%    100.00% # Outstanding read transactions (Count)
system.monitor.outstandingReadsHist::7              0      0.00%    100.00% # Outstanding read transactions (Count)
system.monitor.outstandingReadsHist::8              0      0.00%    100.00% # Outstanding read transactions (Count)
system.monitor.outstandingReadsHist::9              0      0.00%    100.00% # Outstanding read transactions (Count)
system.monitor.outstandingReadsHist::10             0      0.00%    100.00% # Outstanding read transactions (Count)
system.monitor.outstandingReadsHist::11             0      0.00%    100.00% # Outstanding read transactions (Count)
system.monitor.outstandingReadsHist::12             0      0.00%    100.00% # Outstanding read transactions (Count)
system.monitor.outstandingReadsHist::13             0      0.00%    100.00% # Outstanding read transactions (Count)
system.monitor.outstandingReadsHist::14             0      0.00%    100.00% # Outstanding read transactions (Count)
system.monitor.outstandingReadsHist::15             0      0.00%    100.00% # Outstanding read transactions (Count)
system.monitor.outstandingReadsHist::16             0      0.00%    100.00% # Outstanding read transactions (Count)
system.monitor.outstandingReadsHist::17             0      0.00%    100.00% # Outstanding read transactions (Count)
system.monitor.outstandingReadsHist::18             0      0.00%    100.00% # Outstanding read transactions (Count)
system.monitor.outstandingReadsHist::19             0      0.00%    100.00% # Outstanding read transactions (Count)
system.monitor.outstandingReadsHist::total            7                       # Outstanding read transactions (Count)
system.monitor.outstandingWritesHist::samples            7                       # Outstanding write transactions (Count)
system.monitor.outstandingWritesHist::mean            0                       # Outstanding write transactions (Count)
system.monitor.outstandingWritesHist::gmean            0                       # Outstanding write transactions (Count)
system.monitor.outstandingWritesHist::stdev            0                       # Outstanding write transactions (Count)
system.monitor.outstandingWritesHist::0             7    100.00%    100.00% # Outstanding write transactions (Count)
system.monitor.outstandingWritesHist::1             0      0.00%    100.00% # Outstanding write transactions (Count)
system.monitor.outstandingWritesHist::2             0      0.00%    100.00% # Outstanding write transactions (Count)
system.monitor.outstandingWritesHist::3             0      0.00%    100.00% # Outstanding write transactions (Count)
system.monitor.outstandingWritesHist::4             0      0.00%    100.00% # Outstanding write transactions (Count)
system.monitor.outstandingWritesHist::5             0      0.00%    100.00% # Outstanding write transactions (Count)
system.monitor.outstandingWritesHist::6             0      0.00%    100.00% # Outstanding write transactions (Count)
system.monitor.outstandingWritesHist::7             0      0.00%    100.00% # Outstanding write transactions (Count)
system.monitor.outstandingWritesHist::8             0      0.00%    100.00% # Outstanding write transactions (Count)
system.monitor.outstandingWritesHist::9             0      0.00%    100.00% # Outstanding write transactions (Count)
system.monitor.outstandingWritesHist::10            0      0.00%    100.00% # Outstanding write transactions (Count)
system.monitor.outstandingWritesHist::11            0      0.00%    100.00% # Outstanding write transactions (Count)
system.monitor.outstandingWritesHist::12            0      0.00%    100.00% # Outstanding write transactions (Count)
system.monitor.outstandingWritesHist::13            0      0.00%    100.00% # Outstanding write transactions (Count)
system.monitor.outstandingWritesHist::14            0      0.00%    100.00% # Outstanding write transactions (Count)
system.monitor.outstandingWritesHist::15            0      0.00%    100.00% # Outstanding write transactions (Count)
system.monitor.outstandingWritesHist::16            0      0.00%    100.00% # Outstanding write transactions (Count)
system.monitor.outstandingWritesHist::17            0      0.00%    100.00% # Outstanding write transactions (Count)
system.monitor.outstandingWritesHist::18            0      0.00%    100.00% # Outstanding write transactions (Count)
system.monitor.outstandingWritesHist::19            0      0.00%    100.00% # Outstanding write transactions (Count)
system.monitor.outstandingWritesHist::total            7                       # Outstanding write transactions (Count)
system.monitor.readTransHist::samples               7                       # Histogram of read transactions per sample period (Count)
system.monitor.readTransHist::mean        9653.142857                       # Histogram of read transactions per sample period (Count)
system.monitor.readTransHist::gmean       7836.287804                       # Histogram of read transactions per sample period (Count)
system.monitor.readTransHist::stdev       8465.828241                       # Histogram of read transactions per sample period (Count)
system.monitor.readTransHist::0-2047                0      0.00%      0.00% # Histogram of read transactions per sample period (Count)
system.monitor.readTransHist::2048-4095             0      0.00%      0.00% # Histogram of read transactions per sample period (Count)
system.monitor.readTransHist::4096-6143             3     42.86%     42.86% # Histogram of read transactions per sample period (Count)
system.monitor.readTransHist::6144-8191             1     14.29%     57.14% # Histogram of read transactions per sample period (Count)
system.monitor.readTransHist::8192-10239            2     28.57%     85.71% # Histogram of read transactions per sample period (Count)
system.monitor.readTransHist::10240-12287            0      0.00%     85.71% # Histogram of read transactions per sample period (Count)
system.monitor.readTransHist::12288-14335            0      0.00%     85.71% # Histogram of read transactions per sample period (Count)
system.monitor.readTransHist::14336-16383            0      0.00%     85.71% # Histogram of read transactions per sample period (Count)
system.monitor.readTransHist::16384-18431            0      0.00%     85.71% # Histogram of read transactions per sample period (Count)
system.monitor.readTransHist::18432-20479            0      0.00%     85.71% # Histogram of read transactions per sample period (Count)
system.monitor.readTransHist::20480-22527            0      0.00%     85.71% # Histogram of read transactions per sample period (Count)
system.monitor.readTransHist::22528-24575            0      0.00%     85.71% # Histogram of read transactions per sample period (Count)
system.monitor.readTransHist::24576-26623            0      0.00%     85.71% # Histogram of read transactions per sample period (Count)
system.monitor.readTransHist::26624-28671            1     14.29%    100.00% # Histogram of read transactions per sample period (Count)
system.monitor.readTransHist::28672-30719            0      0.00%    100.00% # Histogram of read transactions per sample period (Count)
system.monitor.readTransHist::30720-32767            0      0.00%    100.00% # Histogram of read transactions per sample period (Count)
system.monitor.readTransHist::32768-34815            0      0.00%    100.00% # Histogram of read transactions per sample period (Count)
system.monitor.readTransHist::34816-36863            0      0.00%    100.00% # Histogram of read transactions per sample period (Count)
system.monitor.readTransHist::36864-38911            0      0.00%    100.00% # Histogram of read transactions per sample period (Count)
system.monitor.readTransHist::38912-40959            0      0.00%    100.00% # Histogram of read transactions per sample period (Count)
system.monitor.readTransHist::total                 7                       # Histogram of read transactions per sample period (Count)
system.monitor.writeTransHist::samples              7                       # Histogram of write transactions per sample period (Count)
system.monitor.writeTransHist::mean       2851.428571                       # Histogram of write transactions per sample period (Count)
system.monitor.writeTransHist::gmean                0                       # Histogram of write transactions per sample period (Count)
system.monitor.writeTransHist::stdev      5204.301133                       # Histogram of write transactions per sample period (Count)
system.monitor.writeTransHist::0-1023               5     71.43%     71.43% # Histogram of write transactions per sample period (Count)
system.monitor.writeTransHist::1024-2047            0      0.00%     71.43% # Histogram of write transactions per sample period (Count)
system.monitor.writeTransHist::2048-3071            0      0.00%     71.43% # Histogram of write transactions per sample period (Count)
system.monitor.writeTransHist::3072-4095            0      0.00%     71.43% # Histogram of write transactions per sample period (Count)
system.monitor.writeTransHist::4096-5119            0      0.00%     71.43% # Histogram of write transactions per sample period (Count)
system.monitor.writeTransHist::5120-6143            0      0.00%     71.43% # Histogram of write transactions per sample period (Count)
system.monitor.writeTransHist::6144-7167            1     14.29%     85.71% # Histogram of write transactions per sample period (Count)
system.monitor.writeTransHist::7168-8191            0      0.00%     85.71% # Histogram of write transactions per sample period (Count)
system.monitor.writeTransHist::8192-9215            0      0.00%     85.71% # Histogram of write transactions per sample period (Count)
system.monitor.writeTransHist::9216-10239            0      0.00%     85.71% # Histogram of write transactions per sample period (Count)
system.monitor.writeTransHist::10240-11263            0      0.00%     85.71% # Histogram of write transactions per sample period (Count)
system.monitor.writeTransHist::11264-12287            0      0.00%     85.71% # Histogram of write transactions per sample period (Count)
system.monitor.writeTransHist::12288-13311            1     14.29%    100.00% # Histogram of write transactions per sample period (Count)
system.monitor.writeTransHist::13312-14335            0      0.00%    100.00% # Histogram of write transactions per sample period (Count)
system.monitor.writeTransHist::14336-15359            0      0.00%    100.00% # Histogram of write transactions per sample period (Count)
system.monitor.writeTransHist::15360-16383            0      0.00%    100.00% # Histogram of write transactions per sample period (Count)
system.monitor.writeTransHist::16384-17407            0      0.00%    100.00% # Histogram of write transactions per sample period (Count)
system.monitor.writeTransHist::17408-18431            0      0.00%    100.00% # Histogram of write transactions per sample period (Count)
system.monitor.writeTransHist::18432-19455            0      0.00%    100.00% # Histogram of write transactions per sample period (Count)
system.monitor.writeTransHist::19456-20479            0      0.00%    100.00% # Histogram of write transactions per sample period (Count)
system.monitor.writeTransHist::total                7                       # Histogram of write transactions per sample period (Count)
system.tollcbus.transDist::ReadResp             41161                       # Transaction distribution (Count)
system.tollcbus.transDist::WritebackDirty        23086                       # Transaction distribution (Count)
system.tollcbus.transDist::CleanEvict            3649                       # Transaction distribution (Count)
system.tollcbus.transDist::UpgradeReq           10158                       # Transaction distribution (Count)
system.tollcbus.transDist::SCUpgradeReq            14                       # Transaction distribution (Count)
system.tollcbus.transDist::UpgradeResp          10172                       # Transaction distribution (Count)
system.tollcbus.transDist::ReadExReq            58890                       # Transaction distribution (Count)
system.tollcbus.transDist::ReadExResp           58890                       # Transaction distribution (Count)
system.tollcbus.transDist::ReadSharedReq        41161                       # Transaction distribution (Count)
system.tollcbus.transDist::InvalidateReq            2                       # Transaction distribution (Count)
system.tollcbus.transDist::InvalidateResp            2                       # Transaction distribution (Count)
system.tollcbus.pktCount_system.cpu0.l2cache.mem_side_port::system.monitor-cpu_side_port       144415                       # Packet count per connected requestor and responder (Count)
system.tollcbus.pktCount_system.cpu1.l2cache.mem_side_port::system.monitor-cpu_side_port        71246                       # Packet count per connected requestor and responder (Count)
system.tollcbus.pktCount::total                215661                       # Packet count per connected requestor and responder (Count)
system.tollcbus.pktSize_system.cpu0.l2cache.mem_side_port::system.monitor-cpu_side_port      4731392                       # Cumulative packet size per connected requestor and responder (Byte)
system.tollcbus.pktSize_system.cpu1.l2cache.mem_side_port::system.monitor-cpu_side_port      1142336                       # Cumulative packet size per connected requestor and responder (Byte)
system.tollcbus.pktSize::total                5873728                       # Cumulative packet size per connected requestor and responder (Byte)
system.tollcbus.snoops                          31524                       # Total snoops (Count)
system.tollcbus.snoopTraffic                  2007040                       # Total snoop traffic (Byte)
system.tollcbus.snoopFanout::samples           110225                       # Request fanout histogram (Count)
system.tollcbus.snoopFanout::mean            0.373772                       # Request fanout histogram (Count)
system.tollcbus.snoopFanout::stdev           0.483806                       # Request fanout histogram (Count)
system.tollcbus.snoopFanout::underflows             0      0.00%      0.00% # Request fanout histogram (Count)
system.tollcbus.snoopFanout::0                  69026     62.62%     62.62% # Request fanout histogram (Count)
system.tollcbus.snoopFanout::1                  41199     37.38%    100.00% # Request fanout histogram (Count)
system.tollcbus.snoopFanout::2                      0      0.00%    100.00% # Request fanout histogram (Count)
system.tollcbus.snoopFanout::overflows              0      0.00%    100.00% # Request fanout histogram (Count)
system.tollcbus.snoopFanout::min_value              0                       # Request fanout histogram (Count)
system.tollcbus.snoopFanout::max_value              1                       # Request fanout histogram (Count)
system.tollcbus.snoopFanout::total             110225                       # Request fanout histogram (Count)
system.tollcbus.power_state.pwrStateResidencyTicks::UNDEFINED   7320949722                       # Cumulative time (in ticks) in various power states (Tick)
system.tollcbus.reqLayer0.occupancy          60983288                       # Layer occupancy (ticks) (Tick)
system.tollcbus.reqLayer0.utilization             0.0                       # Layer utilization (Ratio)
system.tollcbus.respLayer0.occupancy         63043491                       # Layer occupancy (ticks) (Tick)
system.tollcbus.respLayer0.utilization            0.0                       # Layer utilization (Ratio)
system.tollcbus.respLayer1.occupancy         40335572                       # Layer occupancy (ticks) (Tick)
system.tollcbus.respLayer1.utilization            0.0                       # Layer utilization (Ratio)
system.tollcbus.snoop_filter.totRequests       136960                       # Total number of requests made to the snoop filter. (Count)
system.tollcbus.snoop_filter.hitSingleRequests        53328                       # Number of requests hitting in the snoop filter with a single holder of the requested data. (Count)
system.tollcbus.snoop_filter.hitMultiRequests        16733                       # Number of requests hitting in the snoop filter with multiple (>1) holders of the requested data. (Count)
system.tollcbus.snoop_filter.totSnoops              0                       # Total number of snoops made to the snoop filter. (Count)
system.tollcbus.snoop_filter.hitSingleSnoops            0                       # Number of snoops hitting in the snoop filter with a single holder of the requested data. (Count)
system.tollcbus.snoop_filter.hitMultiSnoops            0                       # Number of snoops hitting in the snoop filter with multiple (>1) holders of the requested data. (Count)
system.voltage_domain.voltage                       1                       # Voltage in Volts (Volt)
system.workload.inst.arm                            0                       # number of arm instructions executed (Count)
system.workload.inst.quiesce                        0                       # number of quiesce instructions executed (Count)

---------- End Simulation Statistics   ----------
